*SPEF "ieee 1481-1999"
*DESIGN "tt_um_sprite_rom_test"
*DATE "22:54:39 Wednesday April 15, 2026"
*VENDOR "The OpenROAD Project"
*PROGRAM "OpenROAD"
*VERSION "dcf36133a369abc8f3c5e5738cd4d82e4903c0e0"
*DESIGN_FLOW "NAME_SCOPE LOCAL" "PIN_CAP NONE"
*DIVIDER /
*DELIMITER :
*BUS_DELIMITER []
*T_UNIT 1 NS
*C_UNIT 1 PF
*R_UNIT 1 OHM
*L_UNIT 1 HENRY

*NAME_MAP
*3 clk
*4 ena
*5 rst_n
*6 ui_in[0]
*7 ui_in[1]
*8 ui_in[2]
*9 ui_in[3]
*10 ui_in[4]
*11 ui_in[5]
*12 ui_in[6]
*13 ui_in[7]
*14 uio_in[0]
*15 uio_in[1]
*16 uio_in[2]
*17 uio_in[3]
*18 uio_in[4]
*19 uio_in[5]
*20 uio_in[6]
*21 uio_in[7]
*22 net
*23 net20
*24 net21
*25 net22
*26 net23
*27 net24
*28 net25
*29 net26
*30 net27
*31 net28
*32 net29
*33 net30
*34 net31
*35 net32
*36 net33
*37 net34
*38 uo_out[0]
*39 uo_out[1]
*40 uo_out[2]
*41 uo_out[3]
*42 uo_out[4]
*43 uo_out[5]
*44 uo_out[6]
*45 uo_out[7]
*46 _000_
*47 _001_
*48 _002_
*49 _003_
*50 _004_
*51 _005_
*52 _006_
*53 _007_
*54 _008_
*55 _009_
*56 _010_
*57 _011_
*58 _012_
*59 _013_
*60 _014_
*61 _015_
*62 _016_
*63 _017_
*64 _018_
*65 _019_
*66 _020_
*67 _021_
*68 _022_
*69 _023_
*70 _024_
*71 _025_
*72 _026_
*73 _027_
*74 _028_
*75 _029_
*76 _030_
*77 _031_
*78 _032_
*79 _033_
*80 _034_
*81 _035_
*82 _036_
*83 _037_
*84 _038_
*85 _039_
*86 _040_
*87 _041_
*88 _042_
*89 _043_
*90 _044_
*91 _045_
*92 _046_
*93 _047_
*94 _048_
*95 _049_
*96 _050_
*97 _051_
*98 _052_
*99 _053_
*100 _054_
*101 _055_
*102 _056_
*103 _057_
*104 _058_
*105 _059_
*106 _060_
*107 _061_
*108 _062_
*109 _063_
*110 _064_
*111 _065_
*112 _066_
*113 _067_
*114 _068_
*115 _069_
*116 _070_
*117 _071_
*118 _072_
*119 _073_
*120 _074_
*121 _075_
*122 _076_
*123 _077_
*124 _078_
*125 _079_
*126 _080_
*127 _081_
*128 _082_
*129 _083_
*130 _084_
*131 _085_
*132 _086_
*133 _087_
*134 _088_
*135 _089_
*136 _090_
*137 _091_
*138 _092_
*139 _093_
*140 _094_
*141 _095_
*142 _096_
*143 _097_
*144 _098_
*145 _099_
*146 _100_
*147 _101_
*148 _102_
*149 _103_
*150 _104_
*151 _105_
*152 _106_
*153 _107_
*154 _108_
*155 _109_
*156 _110_
*157 _111_
*158 _112_
*159 _113_
*160 _114_
*161 _115_
*162 _116_
*163 _117_
*164 _118_
*165 _119_
*166 _120_
*167 _121_
*168 _122_
*169 _123_
*170 _124_
*171 _125_
*172 _126_
*173 _127_
*174 _128_
*175 _129_
*176 _130_
*177 _131_
*178 _132_
*179 _133_
*180 _134_
*181 _135_
*182 _136_
*183 _137_
*184 _138_
*185 _139_
*186 _140_
*187 _141_
*188 _142_
*189 _143_
*190 _144_
*191 _145_
*192 _146_
*193 _147_
*194 _148_
*195 _149_
*196 _150_
*197 _151_
*198 _152_
*199 _153_
*200 _154_
*201 _155_
*202 _156_
*203 _157_
*204 _158_
*205 _159_
*206 _160_
*207 _161_
*208 _162_
*209 _163_
*210 _164_
*211 _165_
*212 _166_
*213 _167_
*214 _168_
*215 _169_
*216 _170_
*217 _171_
*218 _172_
*219 _173_
*220 _174_
*221 _175_
*222 _176_
*223 _177_
*224 _178_
*225 _179_
*226 _180_
*227 _181_
*228 _182_
*229 _183_
*230 _184_
*231 _185_
*232 _186_
*233 _187_
*234 adj_y\[0\]
*235 adj_y\[1\]
*236 adj_y\[2\]
*237 adj_y\[3\]
*238 adj_y\[4\]
*239 adj_y\[5\]
*240 clk_regs
*241 clknet_0_clk
*242 clknet_0_clk_regs
*243 clknet_1_0__leaf_clk
*244 clknet_2_0__leaf_clk_regs
*245 clknet_2_1__leaf_clk_regs
*246 clknet_2_2__leaf_clk_regs
*247 clknet_2_3__leaf_clk_regs
*248 counter\[0\]
*249 counter\[1\]
*250 counter\[2\]
*251 counter\[3\]
*252 counter\[4\]
*253 counter\[5\]
*254 counter\[6\]
*255 counter\[7\]
*256 counter\[8\]
*257 counter\[9\]
*258 hsync
*259 hsync_r
*260 lfsr\[0\]
*261 lfsr\[10\]
*262 lfsr\[11\]
*263 lfsr\[12\]
*264 lfsr\[13\]
*265 lfsr\[14\]
*266 lfsr\[15\]
*267 lfsr\[16\]
*268 lfsr\[17\]
*269 lfsr\[18\]
*270 lfsr\[19\]
*271 lfsr\[1\]
*272 lfsr\[2\]
*273 lfsr\[3\]
*274 lfsr\[4\]
*275 lfsr\[5\]
*276 lfsr\[6\]
*277 lfsr\[7\]
*278 lfsr\[8\]
*279 lfsr\[9\]
*280 net1
*281 net10
*282 net11
*283 net12
*284 net13
*285 net14
*286 net15
*287 net16
*288 net17
*289 net18
*290 net19
*291 net2
*292 net3
*293 net35
*294 net36
*295 net37
*296 net38
*297 net4
*298 net5
*299 net6
*300 net7
*301 net8
*302 net9
*303 rom_q\[0\]
*304 rom_q\[1\]
*305 rom_q\[2\]
*306 rom_q\[3\]
*307 timing\.count\[0\]
*308 timing\.count\[10\]
*309 timing\.count\[11\]
*310 timing\.count\[12\]
*311 timing\.count\[13\]
*312 timing\.count\[14\]
*313 timing\.count\[15\]
*314 timing\.count\[16\]
*315 timing\.count\[17\]
*316 timing\.count\[18\]
*317 timing\.count\[19\]
*318 timing\.count\[1\]
*319 timing\.count\[2\]
*320 timing\.count\[3\]
*321 timing\.count\[4\]
*322 timing\.count\[5\]
*323 timing\.count\[6\]
*324 timing\.count\[7\]
*325 timing\.count\[8\]
*326 timing\.count\[9\]
*327 timing\.count_max
*328 timing\.count_rst_n
*329 timing\.vsync
*330 vsync_r
*331 FILLER_0_21
*332 FILLER_10_1
*333 FILLER_10_10
*334 FILLER_10_104
*335 FILLER_10_107
*336 FILLER_10_110
*337 FILLER_10_113
*338 FILLER_10_116
*339 FILLER_10_119
*340 FILLER_10_122
*341 FILLER_10_13
*342 FILLER_10_144
*343 FILLER_10_16
*344 FILLER_10_169
*345 FILLER_10_172
*346 FILLER_10_175
*347 FILLER_10_178
*348 FILLER_10_181
*349 FILLER_10_184
*350 FILLER_10_187
*351 FILLER_10_19
*352 FILLER_10_190
*353 FILLER_10_211
*354 FILLER_10_214
*355 FILLER_10_22
*356 FILLER_10_225
*357 FILLER_10_237
*358 FILLER_10_240
*359 FILLER_10_243
*360 FILLER_10_246
*361 FILLER_10_25
*362 FILLER_10_258
*363 FILLER_10_28
*364 FILLER_10_281
*365 FILLER_10_284
*366 FILLER_10_31
*367 FILLER_10_313
*368 FILLER_10_316
*369 FILLER_10_319
*370 FILLER_10_322
*371 FILLER_10_325
*372 FILLER_10_328
*373 FILLER_10_331
*374 FILLER_10_334
*375 FILLER_10_337
*376 FILLER_10_34
*377 FILLER_10_340
*378 FILLER_10_4
*379 FILLER_10_65
*380 FILLER_10_68
*381 FILLER_10_7
*382 FILLER_10_71
*383 FILLER_10_74
*384 FILLER_10_77
*385 FILLER_11_1
*386 FILLER_11_10
*387 FILLER_11_102
*388 FILLER_11_105
*389 FILLER_11_108
*390 FILLER_11_114
*391 FILLER_11_117
*392 FILLER_11_120
*393 FILLER_11_123
*394 FILLER_11_13
*395 FILLER_11_137
*396 FILLER_11_141
*397 FILLER_11_144
*398 FILLER_11_154
*399 FILLER_11_16
*400 FILLER_11_169
*401 FILLER_11_172
*402 FILLER_11_175
*403 FILLER_11_183
*404 FILLER_11_19
*405 FILLER_11_192
*406 FILLER_11_195
*407 FILLER_11_206
*408 FILLER_11_209
*409 FILLER_11_212
*410 FILLER_11_215
*411 FILLER_11_22
*412 FILLER_11_226
*413 FILLER_11_235
*414 FILLER_11_241
*415 FILLER_11_244
*416 FILLER_11_25
*417 FILLER_11_276
*418 FILLER_11_279
*419 FILLER_11_282
*420 FILLER_11_29
*421 FILLER_11_309
*422 FILLER_11_312
*423 FILLER_11_315
*424 FILLER_11_318
*425 FILLER_11_32
*426 FILLER_11_321
*427 FILLER_11_324
*428 FILLER_11_327
*429 FILLER_11_330
*430 FILLER_11_333
*431 FILLER_11_336
*432 FILLER_11_339
*433 FILLER_11_342
*434 FILLER_11_35
*435 FILLER_11_4
*436 FILLER_11_7
*437 FILLER_11_70
*438 FILLER_11_73
*439 FILLER_11_76
*440 FILLER_11_90
*441 FILLER_11_93
*442 FILLER_11_96
*443 FILLER_11_99
*444 FILLER_12_1
*445 FILLER_12_10
*446 FILLER_12_102
*447 FILLER_12_105
*448 FILLER_12_113
*449 FILLER_12_124
*450 FILLER_12_127
*451 FILLER_12_13
*452 FILLER_12_130
*453 FILLER_12_151
*454 FILLER_12_154
*455 FILLER_12_16
*456 FILLER_12_169
*457 FILLER_12_19
*458 FILLER_12_214
*459 FILLER_12_217
*460 FILLER_12_22
*461 FILLER_12_220
*462 FILLER_12_223
*463 FILLER_12_225
*464 FILLER_12_235
*465 FILLER_12_238
*466 FILLER_12_241
*467 FILLER_12_25
*468 FILLER_12_267
*469 FILLER_12_270
*470 FILLER_12_28
*471 FILLER_12_281
*472 FILLER_12_284
*473 FILLER_12_287
*474 FILLER_12_290
*475 FILLER_12_309
*476 FILLER_12_31
*477 FILLER_12_312
*478 FILLER_12_315
*479 FILLER_12_318
*480 FILLER_12_321
*481 FILLER_12_324
*482 FILLER_12_327
*483 FILLER_12_330
*484 FILLER_12_333
*485 FILLER_12_337
*486 FILLER_12_34
*487 FILLER_12_340
*488 FILLER_12_37
*489 FILLER_12_4
*490 FILLER_12_40
*491 FILLER_12_68
*492 FILLER_12_7
*493 FILLER_12_71
*494 FILLER_12_74
*495 FILLER_12_77
*496 FILLER_12_80
*497 FILLER_12_83
*498 FILLER_12_99
*499 FILLER_13_1
*500 FILLER_13_10
*501 FILLER_13_101
*502 FILLER_13_104
*503 FILLER_13_117
*504 FILLER_13_120
*505 FILLER_13_123
*506 FILLER_13_126
*507 FILLER_13_129
*508 FILLER_13_13
*509 FILLER_13_132
*510 FILLER_13_135
*511 FILLER_13_138
*512 FILLER_13_141
*513 FILLER_13_144
*514 FILLER_13_147
*515 FILLER_13_150
*516 FILLER_13_16
*517 FILLER_13_171
*518 FILLER_13_174
*519 FILLER_13_177
*520 FILLER_13_19
*521 FILLER_13_211
*522 FILLER_13_214
*523 FILLER_13_217
*524 FILLER_13_22
*525 FILLER_13_224
*526 FILLER_13_235
*527 FILLER_13_246
*528 FILLER_13_249
*529 FILLER_13_25
*530 FILLER_13_253
*531 FILLER_13_256
*532 FILLER_13_283
*533 FILLER_13_29
*534 FILLER_13_291
*535 FILLER_13_299
*536 FILLER_13_302
*537 FILLER_13_305
*538 FILLER_13_309
*539 FILLER_13_312
*540 FILLER_13_315
*541 FILLER_13_318
*542 FILLER_13_32
*543 FILLER_13_321
*544 FILLER_13_324
*545 FILLER_13_327
*546 FILLER_13_330
*547 FILLER_13_333
*548 FILLER_13_336
*549 FILLER_13_339
*550 FILLER_13_342
*551 FILLER_13_35
*552 FILLER_13_38
*553 FILLER_13_4
*554 FILLER_13_41
*555 FILLER_13_44
*556 FILLER_13_47
*557 FILLER_13_7
*558 FILLER_13_70
*559 FILLER_13_73
*560 FILLER_13_76
*561 FILLER_13_79
*562 FILLER_13_82
*563 FILLER_13_85
*564 FILLER_13_88
*565 FILLER_13_91
*566 FILLER_14_1
*567 FILLER_14_10
*568 FILLER_14_106
*569 FILLER_14_109
*570 FILLER_14_113
*571 FILLER_14_116
*572 FILLER_14_119
*573 FILLER_14_13
*574 FILLER_14_156
*575 FILLER_14_16
*576 FILLER_14_169
*577 FILLER_14_172
*578 FILLER_14_177
*579 FILLER_14_180
*580 FILLER_14_183
*581 FILLER_14_19
*582 FILLER_14_22
*583 FILLER_14_223
*584 FILLER_14_242
*585 FILLER_14_245
*586 FILLER_14_248
*587 FILLER_14_25
*588 FILLER_14_251
*589 FILLER_14_272
*590 FILLER_14_28
*591 FILLER_14_281
*592 FILLER_14_301
*593 FILLER_14_304
*594 FILLER_14_307
*595 FILLER_14_31
*596 FILLER_14_310
*597 FILLER_14_313
*598 FILLER_14_316
*599 FILLER_14_319
*600 FILLER_14_322
*601 FILLER_14_325
*602 FILLER_14_328
*603 FILLER_14_331
*604 FILLER_14_334
*605 FILLER_14_337
*606 FILLER_14_34
*607 FILLER_14_340
*608 FILLER_14_37
*609 FILLER_14_4
*610 FILLER_14_40
*611 FILLER_14_43
*612 FILLER_14_46
*613 FILLER_14_49
*614 FILLER_14_52
*615 FILLER_14_55
*616 FILLER_14_57
*617 FILLER_14_60
*618 FILLER_14_63
*619 FILLER_14_66
*620 FILLER_14_69
*621 FILLER_14_7
*622 FILLER_14_72
*623 FILLER_14_75
*624 FILLER_14_78
*625 FILLER_15_1
*626 FILLER_15_10
*627 FILLER_15_107
*628 FILLER_15_110
*629 FILLER_15_113
*630 FILLER_15_13
*631 FILLER_15_138
*632 FILLER_15_16
*633 FILLER_15_161
*634 FILLER_15_19
*635 FILLER_15_22
*636 FILLER_15_231
*637 FILLER_15_234
*638 FILLER_15_242
*639 FILLER_15_245
*640 FILLER_15_248
*641 FILLER_15_25
*642 FILLER_15_251
*643 FILLER_15_270
*644 FILLER_15_273
*645 FILLER_15_29
*646 FILLER_15_300
*647 FILLER_15_303
*648 FILLER_15_306
*649 FILLER_15_309
*650 FILLER_15_312
*651 FILLER_15_315
*652 FILLER_15_318
*653 FILLER_15_32
*654 FILLER_15_321
*655 FILLER_15_324
*656 FILLER_15_327
*657 FILLER_15_330
*658 FILLER_15_333
*659 FILLER_15_336
*660 FILLER_15_339
*661 FILLER_15_342
*662 FILLER_15_35
*663 FILLER_15_38
*664 FILLER_15_4
*665 FILLER_15_41
*666 FILLER_15_44
*667 FILLER_15_47
*668 FILLER_15_50
*669 FILLER_15_53
*670 FILLER_15_56
*671 FILLER_15_59
*672 FILLER_15_62
*673 FILLER_15_65
*674 FILLER_15_68
*675 FILLER_15_7
*676 FILLER_15_71
*677 FILLER_15_74
*678 FILLER_15_77
*679 FILLER_15_85
*680 FILLER_16_1
*681 FILLER_16_10
*682 FILLER_16_104
*683 FILLER_16_113
*684 FILLER_16_128
*685 FILLER_16_13
*686 FILLER_16_133
*687 FILLER_16_141
*688 FILLER_16_149
*689 FILLER_16_158
*690 FILLER_16_16
*691 FILLER_16_166
*692 FILLER_16_169
*693 FILLER_16_172
*694 FILLER_16_175
*695 FILLER_16_178
*696 FILLER_16_181
*697 FILLER_16_184
*698 FILLER_16_187
*699 FILLER_16_19
*700 FILLER_16_190
*701 FILLER_16_193
*702 FILLER_16_197
*703 FILLER_16_200
*704 FILLER_16_203
*705 FILLER_16_22
*706 FILLER_16_223
*707 FILLER_16_225
*708 FILLER_16_228
*709 FILLER_16_231
*710 FILLER_16_234
*711 FILLER_16_237
*712 FILLER_16_240
*713 FILLER_16_243
*714 FILLER_16_246
*715 FILLER_16_249
*716 FILLER_16_25
*717 FILLER_16_259
*718 FILLER_16_262
*719 FILLER_16_265
*720 FILLER_16_268
*721 FILLER_16_271
*722 FILLER_16_274
*723 FILLER_16_277
*724 FILLER_16_29
*725 FILLER_16_296
*726 FILLER_16_299
*727 FILLER_16_309
*728 FILLER_16_312
*729 FILLER_16_315
*730 FILLER_16_318
*731 FILLER_16_32
*732 FILLER_16_321
*733 FILLER_16_324
*734 FILLER_16_327
*735 FILLER_16_330
*736 FILLER_16_333
*737 FILLER_16_337
*738 FILLER_16_340
*739 FILLER_16_35
*740 FILLER_16_38
*741 FILLER_16_4
*742 FILLER_16_41
*743 FILLER_16_44
*744 FILLER_16_47
*745 FILLER_16_50
*746 FILLER_16_53
*747 FILLER_16_57
*748 FILLER_16_60
*749 FILLER_16_63
*750 FILLER_16_67
*751 FILLER_16_7
*752 FILLER_16_73
*753 FILLER_16_94
*754 FILLER_1_1
*755 FILLER_1_100
*756 FILLER_1_103
*757 FILLER_1_113
*758 FILLER_1_128
*759 FILLER_1_131
*760 FILLER_1_134
*761 FILLER_1_137
*762 FILLER_1_141
*763 FILLER_1_144
*764 FILLER_1_147
*765 FILLER_1_169
*766 FILLER_1_172
*767 FILLER_1_175
*768 FILLER_1_178
*769 FILLER_1_181
*770 FILLER_1_184
*771 FILLER_1_187
*772 FILLER_1_190
*773 FILLER_1_193
*774 FILLER_1_197
*775 FILLER_1_200
*776 FILLER_1_214
*777 FILLER_1_217
*778 FILLER_1_220
*779 FILLER_1_223
*780 FILLER_1_225
*781 FILLER_1_228
*782 FILLER_1_231
*783 FILLER_1_234
*784 FILLER_1_237
*785 FILLER_1_240
*786 FILLER_1_243
*787 FILLER_1_251
*788 FILLER_1_260
*789 FILLER_1_263
*790 FILLER_1_266
*791 FILLER_1_269
*792 FILLER_1_272
*793 FILLER_1_275
*794 FILLER_1_278
*795 FILLER_1_281
*796 FILLER_1_284
*797 FILLER_1_287
*798 FILLER_1_29
*799 FILLER_1_290
*800 FILLER_1_293
*801 FILLER_1_296
*802 FILLER_1_299
*803 FILLER_1_302
*804 FILLER_1_305
*805 FILLER_1_309
*806 FILLER_1_312
*807 FILLER_1_315
*808 FILLER_1_318
*809 FILLER_1_32
*810 FILLER_1_321
*811 FILLER_1_324
*812 FILLER_1_327
*813 FILLER_1_330
*814 FILLER_1_333
*815 FILLER_1_337
*816 FILLER_1_340
*817 FILLER_1_35
*818 FILLER_1_38
*819 FILLER_1_4
*820 FILLER_1_41
*821 FILLER_1_44
*822 FILLER_1_47
*823 FILLER_1_50
*824 FILLER_1_53
*825 FILLER_1_57
*826 FILLER_1_60
*827 FILLER_1_63
*828 FILLER_1_66
*829 FILLER_1_7
*830 FILLER_1_81
*831 FILLER_1_85
*832 FILLER_1_88
*833 FILLER_1_91
*834 FILLER_1_94
*835 FILLER_1_97
*836 FILLER_2_1
*837 FILLER_2_10
*838 FILLER_2_113
*839 FILLER_2_126
*840 FILLER_2_129
*841 FILLER_2_13
*842 FILLER_2_132
*843 FILLER_2_135
*844 FILLER_2_151
*845 FILLER_2_154
*846 FILLER_2_169
*847 FILLER_2_172
*848 FILLER_2_175
*849 FILLER_2_178
*850 FILLER_2_181
*851 FILLER_2_184
*852 FILLER_2_198
*853 FILLER_2_212
*854 FILLER_2_215
*855 FILLER_2_218
*856 FILLER_2_221
*857 FILLER_2_225
*858 FILLER_2_228
*859 FILLER_2_249
*860 FILLER_2_26
*861 FILLER_2_268
*862 FILLER_2_271
*863 FILLER_2_289
*864 FILLER_2_29
*865 FILLER_2_292
*866 FILLER_2_295
*867 FILLER_2_298
*868 FILLER_2_301
*869 FILLER_2_304
*870 FILLER_2_307
*871 FILLER_2_310
*872 FILLER_2_313
*873 FILLER_2_316
*874 FILLER_2_319
*875 FILLER_2_32
*876 FILLER_2_322
*877 FILLER_2_325
*878 FILLER_2_328
*879 FILLER_2_331
*880 FILLER_2_334
*881 FILLER_2_337
*882 FILLER_2_340
*883 FILLER_2_35
*884 FILLER_2_4
*885 FILLER_2_47
*886 FILLER_2_50
*887 FILLER_2_53
*888 FILLER_2_57
*889 FILLER_2_60
*890 FILLER_2_63
*891 FILLER_2_66
*892 FILLER_2_7
*893 FILLER_2_91
*894 FILLER_2_94
*895 FILLER_2_97
*896 FILLER_3_1
*897 FILLER_3_10
*898 FILLER_3_100
*899 FILLER_3_103
*900 FILLER_3_126
*901 FILLER_3_129
*902 FILLER_3_13
*903 FILLER_3_132
*904 FILLER_3_141
*905 FILLER_3_144
*906 FILLER_3_16
*907 FILLER_3_167
*908 FILLER_3_170
*909 FILLER_3_173
*910 FILLER_3_19
*911 FILLER_3_209
*912 FILLER_3_212
*913 FILLER_3_215
*914 FILLER_3_218
*915 FILLER_3_22
*916 FILLER_3_221
*917 FILLER_3_224
*918 FILLER_3_227
*919 FILLER_3_25
*920 FILLER_3_251
*921 FILLER_3_253
*922 FILLER_3_270
*923 FILLER_3_29
*924 FILLER_3_291
*925 FILLER_3_294
*926 FILLER_3_297
*927 FILLER_3_300
*928 FILLER_3_303
*929 FILLER_3_306
*930 FILLER_3_309
*931 FILLER_3_312
*932 FILLER_3_315
*933 FILLER_3_318
*934 FILLER_3_32
*935 FILLER_3_321
*936 FILLER_3_324
*937 FILLER_3_327
*938 FILLER_3_330
*939 FILLER_3_333
*940 FILLER_3_336
*941 FILLER_3_339
*942 FILLER_3_342
*943 FILLER_3_35
*944 FILLER_3_38
*945 FILLER_3_4
*946 FILLER_3_41
*947 FILLER_3_59
*948 FILLER_3_62
*949 FILLER_3_65
*950 FILLER_3_7
*951 FILLER_3_80
*952 FILLER_3_83
*953 FILLER_3_85
*954 FILLER_3_88
*955 FILLER_3_91
*956 FILLER_3_94
*957 FILLER_3_97
*958 FILLER_4_1
*959 FILLER_4_10
*960 FILLER_4_100
*961 FILLER_4_103
*962 FILLER_4_106
*963 FILLER_4_109
*964 FILLER_4_113
*965 FILLER_4_116
*966 FILLER_4_124
*967 FILLER_4_127
*968 FILLER_4_13
*969 FILLER_4_130
*970 FILLER_4_133
*971 FILLER_4_136
*972 FILLER_4_157
*973 FILLER_4_16
*974 FILLER_4_160
*975 FILLER_4_163
*976 FILLER_4_166
*977 FILLER_4_169
*978 FILLER_4_172
*979 FILLER_4_204
*980 FILLER_4_207
*981 FILLER_4_210
*982 FILLER_4_213
*983 FILLER_4_216
*984 FILLER_4_219
*985 FILLER_4_222
*986 FILLER_4_225
*987 FILLER_4_248
*988 FILLER_4_264
*989 FILLER_4_267
*990 FILLER_4_27
*991 FILLER_4_270
*992 FILLER_4_279
*993 FILLER_4_281
*994 FILLER_4_291
*995 FILLER_4_294
*996 FILLER_4_297
*997 FILLER_4_30
*998 FILLER_4_300
*999 FILLER_4_303
*1000 FILLER_4_306
*1001 FILLER_4_309
*1002 FILLER_4_312
*1003 FILLER_4_315
*1004 FILLER_4_318
*1005 FILLER_4_321
*1006 FILLER_4_324
*1007 FILLER_4_327
*1008 FILLER_4_33
*1009 FILLER_4_330
*1010 FILLER_4_333
*1011 FILLER_4_337
*1012 FILLER_4_340
*1013 FILLER_4_36
*1014 FILLER_4_39
*1015 FILLER_4_4
*1016 FILLER_4_42
*1017 FILLER_4_45
*1018 FILLER_4_48
*1019 FILLER_4_51
*1020 FILLER_4_54
*1021 FILLER_4_57
*1022 FILLER_4_7
*1023 FILLER_4_75
*1024 FILLER_4_81
*1025 FILLER_4_84
*1026 FILLER_4_87
*1027 FILLER_4_90
*1028 FILLER_4_94
*1029 FILLER_4_97
*1030 FILLER_5_1
*1031 FILLER_5_10
*1032 FILLER_5_117
*1033 FILLER_5_120
*1034 FILLER_5_123
*1035 FILLER_5_13
*1036 FILLER_5_134
*1037 FILLER_5_137
*1038 FILLER_5_157
*1039 FILLER_5_16
*1040 FILLER_5_160
*1041 FILLER_5_163
*1042 FILLER_5_166
*1043 FILLER_5_169
*1044 FILLER_5_172
*1045 FILLER_5_175
*1046 FILLER_5_178
*1047 FILLER_5_19
*1048 FILLER_5_197
*1049 FILLER_5_200
*1050 FILLER_5_203
*1051 FILLER_5_206
*1052 FILLER_5_209
*1053 FILLER_5_212
*1054 FILLER_5_215
*1055 FILLER_5_218
*1056 FILLER_5_22
*1057 FILLER_5_221
*1058 FILLER_5_224
*1059 FILLER_5_242
*1060 FILLER_5_245
*1061 FILLER_5_248
*1062 FILLER_5_25
*1063 FILLER_5_251
*1064 FILLER_5_253
*1065 FILLER_5_256
*1066 FILLER_5_259
*1067 FILLER_5_262
*1068 FILLER_5_265
*1069 FILLER_5_268
*1070 FILLER_5_271
*1071 FILLER_5_274
*1072 FILLER_5_283
*1073 FILLER_5_286
*1074 FILLER_5_289
*1075 FILLER_5_29
*1076 FILLER_5_292
*1077 FILLER_5_299
*1078 FILLER_5_302
*1079 FILLER_5_305
*1080 FILLER_5_309
*1081 FILLER_5_312
*1082 FILLER_5_315
*1083 FILLER_5_318
*1084 FILLER_5_32
*1085 FILLER_5_321
*1086 FILLER_5_324
*1087 FILLER_5_327
*1088 FILLER_5_330
*1089 FILLER_5_333
*1090 FILLER_5_336
*1091 FILLER_5_339
*1092 FILLER_5_342
*1093 FILLER_5_35
*1094 FILLER_5_38
*1095 FILLER_5_4
*1096 FILLER_5_41
*1097 FILLER_5_44
*1098 FILLER_5_47
*1099 FILLER_5_50
*1100 FILLER_5_66
*1101 FILLER_5_7
*1102 FILLER_5_85
*1103 FILLER_5_88
*1104 FILLER_5_91
*1105 FILLER_5_94
*1106 FILLER_6_1
*1107 FILLER_6_10
*1108 FILLER_6_108
*1109 FILLER_6_111
*1110 FILLER_6_121
*1111 FILLER_6_124
*1112 FILLER_6_127
*1113 FILLER_6_13
*1114 FILLER_6_130
*1115 FILLER_6_133
*1116 FILLER_6_136
*1117 FILLER_6_139
*1118 FILLER_6_142
*1119 FILLER_6_148
*1120 FILLER_6_154
*1121 FILLER_6_169
*1122 FILLER_6_172
*1123 FILLER_6_175
*1124 FILLER_6_178
*1125 FILLER_6_181
*1126 FILLER_6_190
*1127 FILLER_6_200
*1128 FILLER_6_203
*1129 FILLER_6_206
*1130 FILLER_6_209
*1131 FILLER_6_212
*1132 FILLER_6_215
*1133 FILLER_6_225
*1134 FILLER_6_239
*1135 FILLER_6_24
*1136 FILLER_6_242
*1137 FILLER_6_245
*1138 FILLER_6_248
*1139 FILLER_6_251
*1140 FILLER_6_254
*1141 FILLER_6_257
*1142 FILLER_6_260
*1143 FILLER_6_27
*1144 FILLER_6_281
*1145 FILLER_6_284
*1146 FILLER_6_30
*1147 FILLER_6_308
*1148 FILLER_6_311
*1149 FILLER_6_314
*1150 FILLER_6_317
*1151 FILLER_6_320
*1152 FILLER_6_323
*1153 FILLER_6_326
*1154 FILLER_6_329
*1155 FILLER_6_33
*1156 FILLER_6_332
*1157 FILLER_6_335
*1158 FILLER_6_337
*1159 FILLER_6_340
*1160 FILLER_6_36
*1161 FILLER_6_39
*1162 FILLER_6_4
*1163 FILLER_6_42
*1164 FILLER_6_45
*1165 FILLER_6_48
*1166 FILLER_6_57
*1167 FILLER_6_60
*1168 FILLER_6_7
*1169 FILLER_6_90
*1170 FILLER_6_93
*1171 FILLER_6_96
*1172 FILLER_6_99
*1173 FILLER_7_1
*1174 FILLER_7_10
*1175 FILLER_7_100
*1176 FILLER_7_13
*1177 FILLER_7_130
*1178 FILLER_7_133
*1179 FILLER_7_136
*1180 FILLER_7_139
*1181 FILLER_7_141
*1182 FILLER_7_144
*1183 FILLER_7_16
*1184 FILLER_7_194
*1185 FILLER_7_204
*1186 FILLER_7_207
*1187 FILLER_7_210
*1188 FILLER_7_234
*1189 FILLER_7_237
*1190 FILLER_7_240
*1191 FILLER_7_243
*1192 FILLER_7_246
*1193 FILLER_7_249
*1194 FILLER_7_253
*1195 FILLER_7_26
*1196 FILLER_7_277
*1197 FILLER_7_280
*1198 FILLER_7_309
*1199 FILLER_7_312
*1200 FILLER_7_315
*1201 FILLER_7_318
*1202 FILLER_7_321
*1203 FILLER_7_324
*1204 FILLER_7_327
*1205 FILLER_7_330
*1206 FILLER_7_333
*1207 FILLER_7_336
*1208 FILLER_7_339
*1209 FILLER_7_34
*1210 FILLER_7_342
*1211 FILLER_7_37
*1212 FILLER_7_4
*1213 FILLER_7_40
*1214 FILLER_7_43
*1215 FILLER_7_46
*1216 FILLER_7_49
*1217 FILLER_7_52
*1218 FILLER_7_55
*1219 FILLER_7_7
*1220 FILLER_7_81
*1221 FILLER_7_85
*1222 FILLER_7_88
*1223 FILLER_7_91
*1224 FILLER_7_94
*1225 FILLER_7_97
*1226 FILLER_8_1
*1227 FILLER_8_10
*1228 FILLER_8_104
*1229 FILLER_8_123
*1230 FILLER_8_126
*1231 FILLER_8_129
*1232 FILLER_8_13
*1233 FILLER_8_132
*1234 FILLER_8_135
*1235 FILLER_8_138
*1236 FILLER_8_141
*1237 FILLER_8_144
*1238 FILLER_8_156
*1239 FILLER_8_16
*1240 FILLER_8_166
*1241 FILLER_8_169
*1242 FILLER_8_172
*1243 FILLER_8_175
*1244 FILLER_8_178
*1245 FILLER_8_19
*1246 FILLER_8_211
*1247 FILLER_8_22
*1248 FILLER_8_233
*1249 FILLER_8_236
*1250 FILLER_8_239
*1251 FILLER_8_242
*1252 FILLER_8_245
*1253 FILLER_8_248
*1254 FILLER_8_25
*1255 FILLER_8_274
*1256 FILLER_8_277
*1257 FILLER_8_28
*1258 FILLER_8_288
*1259 FILLER_8_31
*1260 FILLER_8_320
*1261 FILLER_8_323
*1262 FILLER_8_326
*1263 FILLER_8_329
*1264 FILLER_8_332
*1265 FILLER_8_335
*1266 FILLER_8_337
*1267 FILLER_8_34
*1268 FILLER_8_340
*1269 FILLER_8_37
*1270 FILLER_8_4
*1271 FILLER_8_40
*1272 FILLER_8_43
*1273 FILLER_8_46
*1274 FILLER_8_49
*1275 FILLER_8_52
*1276 FILLER_8_55
*1277 FILLER_8_57
*1278 FILLER_8_60
*1279 FILLER_8_68
*1280 FILLER_8_7
*1281 FILLER_8_71
*1282 FILLER_8_74
*1283 FILLER_8_77
*1284 FILLER_8_80
*1285 FILLER_8_83
*1286 FILLER_8_86
*1287 FILLER_8_89
*1288 FILLER_8_92
*1289 FILLER_8_95
*1290 FILLER_9_1
*1291 FILLER_9_10
*1292 FILLER_9_116
*1293 FILLER_9_119
*1294 FILLER_9_13
*1295 FILLER_9_132
*1296 FILLER_9_135
*1297 FILLER_9_138
*1298 FILLER_9_141
*1299 FILLER_9_144
*1300 FILLER_9_147
*1301 FILLER_9_150
*1302 FILLER_9_16
*1303 FILLER_9_166
*1304 FILLER_9_169
*1305 FILLER_9_172
*1306 FILLER_9_175
*1307 FILLER_9_178
*1308 FILLER_9_181
*1309 FILLER_9_184
*1310 FILLER_9_19
*1311 FILLER_9_194
*1312 FILLER_9_197
*1313 FILLER_9_200
*1314 FILLER_9_203
*1315 FILLER_9_206
*1316 FILLER_9_209
*1317 FILLER_9_22
*1318 FILLER_9_239
*1319 FILLER_9_242
*1320 FILLER_9_245
*1321 FILLER_9_25
*1322 FILLER_9_284
*1323 FILLER_9_287
*1324 FILLER_9_29
*1325 FILLER_9_304
*1326 FILLER_9_307
*1327 FILLER_9_309
*1328 FILLER_9_312
*1329 FILLER_9_315
*1330 FILLER_9_318
*1331 FILLER_9_32
*1332 FILLER_9_321
*1333 FILLER_9_324
*1334 FILLER_9_327
*1335 FILLER_9_330
*1336 FILLER_9_333
*1337 FILLER_9_336
*1338 FILLER_9_339
*1339 FILLER_9_342
*1340 FILLER_9_35
*1341 FILLER_9_38
*1342 FILLER_9_4
*1343 FILLER_9_41
*1344 FILLER_9_44
*1345 FILLER_9_50
*1346 FILLER_9_53
*1347 FILLER_9_66
*1348 FILLER_9_69
*1349 FILLER_9_7
*1350 FILLER_9_72
*1351 FILLER_9_75
*1352 FILLER_9_78
*1353 FILLER_9_81
*1354 FILLER_9_90
*1355 FILLER_9_93
*1356 PHY_EDGE_ROW_23_1_Left_17
*1357 PHY_EDGE_ROW_23_1_Right_0
*1358 PHY_EDGE_ROW_24_Left_18
*1359 PHY_EDGE_ROW_24_Right_1
*1360 PHY_EDGE_ROW_25_Left_19
*1361 PHY_EDGE_ROW_25_Right_2
*1362 PHY_EDGE_ROW_26_Left_20
*1363 PHY_EDGE_ROW_26_Right_3
*1364 PHY_EDGE_ROW_27_Left_21
*1365 PHY_EDGE_ROW_27_Right_4
*1366 PHY_EDGE_ROW_28_Left_22
*1367 PHY_EDGE_ROW_28_Right_5
*1368 PHY_EDGE_ROW_29_Left_23
*1369 PHY_EDGE_ROW_29_Right_6
*1370 PHY_EDGE_ROW_30_Left_24
*1371 PHY_EDGE_ROW_30_Right_7
*1372 PHY_EDGE_ROW_31_Left_25
*1373 PHY_EDGE_ROW_31_Right_8
*1374 PHY_EDGE_ROW_32_Left_26
*1375 PHY_EDGE_ROW_32_Right_9
*1376 PHY_EDGE_ROW_33_Left_27
*1377 PHY_EDGE_ROW_33_Right_10
*1378 PHY_EDGE_ROW_34_Left_28
*1379 PHY_EDGE_ROW_34_Right_11
*1380 PHY_EDGE_ROW_35_Left_29
*1381 PHY_EDGE_ROW_35_Right_12
*1382 PHY_EDGE_ROW_36_Left_30
*1383 PHY_EDGE_ROW_36_Right_13
*1384 PHY_EDGE_ROW_37_Left_31
*1385 PHY_EDGE_ROW_37_Right_14
*1386 PHY_EDGE_ROW_38_Left_32
*1387 PHY_EDGE_ROW_38_Right_15
*1388 PHY_EDGE_ROW_39_Left_33
*1389 PHY_EDGE_ROW_39_Right_16
*1390 TAP_TAPCELL_ROW_24_34
*1391 TAP_TAPCELL_ROW_24_35
*1392 TAP_TAPCELL_ROW_24_36
*1393 TAP_TAPCELL_ROW_24_37
*1394 TAP_TAPCELL_ROW_24_38
*1395 TAP_TAPCELL_ROW_24_39
*1396 TAP_TAPCELL_ROW_24_40
*1397 TAP_TAPCELL_ROW_24_41
*1398 TAP_TAPCELL_ROW_24_42
*1399 TAP_TAPCELL_ROW_24_43
*1400 TAP_TAPCELL_ROW_24_44
*1401 TAP_TAPCELL_ROW_24_45
*1402 TAP_TAPCELL_ROW_25_46
*1403 TAP_TAPCELL_ROW_25_47
*1404 TAP_TAPCELL_ROW_25_48
*1405 TAP_TAPCELL_ROW_25_49
*1406 TAP_TAPCELL_ROW_25_50
*1407 TAP_TAPCELL_ROW_25_51
*1408 TAP_TAPCELL_ROW_26_52
*1409 TAP_TAPCELL_ROW_26_53
*1410 TAP_TAPCELL_ROW_26_54
*1411 TAP_TAPCELL_ROW_26_55
*1412 TAP_TAPCELL_ROW_26_56
*1413 TAP_TAPCELL_ROW_26_57
*1414 TAP_TAPCELL_ROW_27_58
*1415 TAP_TAPCELL_ROW_27_59
*1416 TAP_TAPCELL_ROW_27_60
*1417 TAP_TAPCELL_ROW_27_61
*1418 TAP_TAPCELL_ROW_27_62
*1419 TAP_TAPCELL_ROW_27_63
*1420 TAP_TAPCELL_ROW_28_64
*1421 TAP_TAPCELL_ROW_28_65
*1422 TAP_TAPCELL_ROW_28_66
*1423 TAP_TAPCELL_ROW_28_67
*1424 TAP_TAPCELL_ROW_28_68
*1425 TAP_TAPCELL_ROW_28_69
*1426 TAP_TAPCELL_ROW_29_70
*1427 TAP_TAPCELL_ROW_29_71
*1428 TAP_TAPCELL_ROW_29_72
*1429 TAP_TAPCELL_ROW_29_73
*1430 TAP_TAPCELL_ROW_29_74
*1431 TAP_TAPCELL_ROW_29_75
*1432 TAP_TAPCELL_ROW_30_76
*1433 TAP_TAPCELL_ROW_30_77
*1434 TAP_TAPCELL_ROW_30_78
*1435 TAP_TAPCELL_ROW_30_79
*1436 TAP_TAPCELL_ROW_30_80
*1437 TAP_TAPCELL_ROW_30_81
*1438 TAP_TAPCELL_ROW_31_82
*1439 TAP_TAPCELL_ROW_31_83
*1440 TAP_TAPCELL_ROW_31_84
*1441 TAP_TAPCELL_ROW_31_85
*1442 TAP_TAPCELL_ROW_31_86
*1443 TAP_TAPCELL_ROW_31_87
*1444 TAP_TAPCELL_ROW_32_88
*1445 TAP_TAPCELL_ROW_32_89
*1446 TAP_TAPCELL_ROW_32_90
*1447 TAP_TAPCELL_ROW_32_91
*1448 TAP_TAPCELL_ROW_32_92
*1449 TAP_TAPCELL_ROW_32_93
*1450 TAP_TAPCELL_ROW_33_94
*1451 TAP_TAPCELL_ROW_33_95
*1452 TAP_TAPCELL_ROW_33_96
*1453 TAP_TAPCELL_ROW_33_97
*1454 TAP_TAPCELL_ROW_33_98
*1455 TAP_TAPCELL_ROW_33_99
*1456 TAP_TAPCELL_ROW_34_100
*1457 TAP_TAPCELL_ROW_34_101
*1458 TAP_TAPCELL_ROW_34_102
*1459 TAP_TAPCELL_ROW_34_103
*1460 TAP_TAPCELL_ROW_34_104
*1461 TAP_TAPCELL_ROW_34_105
*1462 TAP_TAPCELL_ROW_35_106
*1463 TAP_TAPCELL_ROW_35_107
*1464 TAP_TAPCELL_ROW_35_108
*1465 TAP_TAPCELL_ROW_35_109
*1466 TAP_TAPCELL_ROW_35_110
*1467 TAP_TAPCELL_ROW_35_111
*1468 TAP_TAPCELL_ROW_36_112
*1469 TAP_TAPCELL_ROW_36_113
*1470 TAP_TAPCELL_ROW_36_114
*1471 TAP_TAPCELL_ROW_36_115
*1472 TAP_TAPCELL_ROW_36_116
*1473 TAP_TAPCELL_ROW_36_117
*1474 TAP_TAPCELL_ROW_37_118
*1475 TAP_TAPCELL_ROW_37_119
*1476 TAP_TAPCELL_ROW_37_120
*1477 TAP_TAPCELL_ROW_37_121
*1478 TAP_TAPCELL_ROW_37_122
*1479 TAP_TAPCELL_ROW_37_123
*1480 TAP_TAPCELL_ROW_38_124
*1481 TAP_TAPCELL_ROW_38_125
*1482 TAP_TAPCELL_ROW_38_126
*1483 TAP_TAPCELL_ROW_38_127
*1484 TAP_TAPCELL_ROW_38_128
*1485 TAP_TAPCELL_ROW_38_129
*1486 TAP_TAPCELL_ROW_39_130
*1487 TAP_TAPCELL_ROW_39_131
*1488 TAP_TAPCELL_ROW_39_132
*1489 TAP_TAPCELL_ROW_39_133
*1490 TAP_TAPCELL_ROW_39_134
*1491 TAP_TAPCELL_ROW_39_135
*1492 TAP_TAPCELL_ROW_39_136
*1493 TAP_TAPCELL_ROW_39_137
*1494 TAP_TAPCELL_ROW_39_138
*1495 TAP_TAPCELL_ROW_39_139
*1496 TAP_TAPCELL_ROW_39_140
*1497 TAP_TAPCELL_ROW_39_141
*1498 _189_
*1499 _190_
*1500 _191_
*1501 _192_
*1502 _193_
*1503 _194_
*1504 _195_
*1505 _196_
*1506 _197_
*1507 _198_
*1508 _199_
*1509 _200_
*1510 _201_
*1511 _202_
*1512 _203_
*1513 _204_
*1514 _205_
*1515 _206_
*1516 _207_
*1517 _208_
*1518 _209_
*1519 _210_
*1520 _211_
*1521 _212_
*1522 _213_
*1523 _214_
*1524 _215_
*1525 _216_
*1526 _217_
*1527 _218_
*1528 _219_
*1529 _220_
*1530 _221_
*1531 _222_
*1532 _223_
*1533 _224_
*1534 _225_
*1535 _226_
*1536 _227_
*1537 _228_
*1538 _229_
*1539 _230_
*1540 _231_
*1541 _232_
*1542 _233_
*1543 _234_
*1544 _235_
*1545 _236_
*1546 _237_
*1547 _238_
*1548 _239_
*1549 _240_
*1550 _241_
*1551 _242_
*1552 _243_
*1553 _244_
*1554 _245_
*1555 _246_
*1556 _247_
*1557 _248_
*1558 _249_
*1559 _250_
*1560 _251_
*1561 _252_
*1562 _253_
*1563 _254_
*1564 _255_
*1565 _256_
*1566 _257_
*1567 _258_
*1568 _259_
*1569 _260_
*1570 _261_
*1571 _262_
*1572 _263_
*1573 _264_
*1574 _265_
*1575 _266_
*1576 _267_
*1577 _268_
*1578 _269_
*1579 _270_
*1580 _271_
*1581 _272_
*1582 _273_
*1583 _274_
*1584 _275_
*1585 _276_
*1586 _277_
*1587 _278_
*1588 _279_
*1589 _280_
*1590 _281_
*1591 _282_
*1592 _283_
*1593 _284_
*1594 _285_
*1595 _286_
*1596 _287_
*1597 _288_
*1598 _289_
*1599 _290_
*1600 _291_
*1601 _292_
*1602 _293_
*1603 _294_
*1604 _295_
*1605 _296_
*1606 _297_
*1607 _298_
*1608 _299_
*1609 _300_
*1610 _301_
*1611 _302_
*1612 _303_
*1613 _304_
*1614 _305_
*1615 _306_
*1616 _307_
*1617 _308_
*1618 _309_
*1619 _310_
*1620 _311_
*1621 _312_
*1622 _313_
*1623 _314_
*1624 _315_
*1625 _316_
*1626 _317_
*1627 _318_
*1628 _319_
*1629 _320_
*1630 _321_
*1631 _322_
*1632 _323_
*1633 _324_
*1634 _325_
*1635 _326_
*1636 _327_
*1637 _328_
*1638 _329_
*1639 _330_
*1640 _331_
*1641 _332_
*1642 _333_
*1643 _334_
*1644 _335_
*1645 _336_
*1646 _337_
*1647 _338_
*1648 _339_
*1649 _340_
*1650 _341_
*1651 _342_
*1652 _343_
*1653 _344_
*1654 _345_
*1655 _346_
*1656 _347_
*1657 _348_
*1658 _349_
*1659 _350_
*1660 _351_
*1661 _352_
*1662 _353_
*1663 _354_
*1664 _355_
*1665 _356_
*1666 _357_
*1667 _358_
*1668 _359_
*1669 _360_
*1670 _361_
*1671 _362_
*1672 _363_
*1673 _364_
*1674 _365_
*1675 _366_
*1676 _367_
*1677 _368_
*1678 _369_
*1679 _370_
*1680 _371_
*1681 _372_
*1682 _373_
*1683 _374_
*1684 _375_
*1685 _376_
*1686 _377_
*1687 _378_
*1688 _379_
*1689 _380_
*1690 _381_
*1691 _382_
*1692 _383_
*1693 _384_
*1694 _385_
*1695 _386_
*1696 _387_
*1697 _388_
*1698 _389_
*1699 _390_
*1700 _391_
*1701 _392_
*1702 _393_
*1703 _394_
*1704 _395_
*1705 _396_
*1706 _397_
*1707 _398_