*SPEF "ieee 1481-1999"
*DESIGN "tt_um_rebelmike_asic_odyssey"
*DATE "23:21:53 Thursday April 16, 2026"
*VENDOR "The OpenROAD Project"
*PROGRAM "OpenROAD"
*VERSION "dcf36133a369abc8f3c5e5738cd4d82e4903c0e0"
*DESIGN_FLOW "NAME_SCOPE LOCAL" "PIN_CAP NONE"
*DIVIDER /
*DELIMITER :
*BUS_DELIMITER []
*T_UNIT 1 NS
*C_UNIT 1 PF
*R_UNIT 1 OHM
*L_UNIT 1 HENRY

*NAME_MAP
*3 clk
*4 ena
*5 rst_n
*6 ui_in[0]
*7 ui_in[1]
*8 ui_in[2]
*9 ui_in[3]
*10 ui_in[4]
*11 ui_in[5]
*12 ui_in[6]
*13 ui_in[7]
*14 uio_in[0]
*15 uio_in[1]
*16 uio_in[2]
*17 uio_in[3]
*18 uio_in[4]
*19 uio_in[5]
*20 uio_in[6]
*21 uio_in[7]
*22 net
*23 net24
*24 net25
*25 net26
*26 net27
*27 net28
*28 net29
*29 net30
*30 net31
*31 net32
*32 net33
*33 net34
*34 net35
*35 net36
*36 net37
*37 net38
*38 uo_out[0]
*39 uo_out[1]
*40 uo_out[2]
*41 uo_out[3]
*42 uo_out[4]
*43 uo_out[5]
*44 uo_out[6]
*45 uo_out[7]
*46 _000_
*47 _001_
*48 _002_
*49 _003_
*50 _004_
*51 _005_
*52 _006_
*53 _007_
*54 _008_
*55 _009_
*56 _010_
*57 _011_
*58 _012_
*59 _013_
*60 _014_
*61 _015_
*62 _016_
*63 _017_
*64 _018_
*65 _019_
*66 _020_
*67 _021_
*68 _022_
*69 _023_
*70 _024_
*71 _025_
*72 _026_
*73 _027_
*74 _028_
*75 _029_
*76 _030_
*77 _031_
*78 _032_
*79 _033_
*80 _034_
*81 _035_
*82 _036_
*83 _037_
*84 _038_
*85 _039_
*86 _040_
*87 _041_
*88 _042_
*89 _043_
*90 _044_
*91 _045_
*92 _046_
*93 _047_
*94 _048_
*95 _049_
*96 _050_
*97 _051_
*98 _052_
*99 _053_
*100 _054_
*101 _055_
*102 _056_
*103 _057_
*104 _058_
*105 _059_
*106 _060_
*107 _061_
*108 _062_
*109 _063_
*110 _064_
*111 _065_
*112 _066_
*113 _067_
*114 _068_
*115 _069_
*116 _070_
*117 _071_
*118 _072_
*119 _073_
*120 _074_
*121 _075_
*122 _076_
*123 _077_
*124 _078_
*125 _079_
*126 _080_
*127 _081_
*128 _082_
*129 _083_
*130 _084_
*131 _085_
*132 _086_
*133 _087_
*134 _088_
*135 _089_
*136 _090_
*137 _091_
*138 _092_
*139 _093_
*140 _094_
*141 _095_
*142 _096_
*143 _097_
*144 _098_
*145 _099_
*146 _100_
*147 _101_
*148 _102_
*149 _103_
*150 _104_
*151 _105_
*152 _106_
*153 _107_
*154 _108_
*155 _109_
*156 _110_
*157 _111_
*158 _112_
*159 _113_
*160 _114_
*161 _115_
*162 _116_
*163 _117_
*164 _118_
*165 _119_
*166 _120_
*167 _121_
*168 _122_
*169 _123_
*170 _124_
*171 _125_
*172 _126_
*173 _127_
*174 _128_
*175 _129_
*176 _130_
*177 _131_
*178 _132_
*179 _133_
*180 _134_
*181 _135_
*182 _136_
*183 _137_
*184 _138_
*185 _139_
*186 _140_
*187 _141_
*188 _142_
*189 _143_
*190 _144_
*191 _145_
*192 _146_
*193 _147_
*194 _148_
*195 _149_
*196 _150_
*197 _151_
*198 _152_
*199 _153_
*200 _154_
*201 _155_
*202 _156_
*203 _157_
*204 _158_
*205 _159_
*206 _160_
*207 _161_
*208 _162_
*209 _163_
*210 _164_
*211 _165_
*212 _166_
*213 _167_
*214 _168_
*215 _169_
*216 _170_
*217 _171_
*218 _172_
*219 _173_
*220 _174_
*221 _175_
*222 _176_
*223 _177_
*224 _178_
*225 _179_
*226 _180_
*227 _181_
*228 _182_
*229 _183_
*230 _184_
*231 _185_
*232 _186_
*233 _187_
*234 _188_
*235 _189_
*236 _190_
*237 _191_
*238 _192_
*239 _193_
*240 _194_
*241 _195_
*242 _196_
*243 _197_
*244 _198_
*245 _199_
*246 _200_
*247 _201_
*248 _202_
*249 _203_
*250 _204_
*251 _205_
*252 _206_
*253 _207_
*254 _208_
*255 _209_
*256 _210_
*257 _211_
*258 _212_
*259 _213_
*260 _214_
*261 _215_
*262 _216_
*263 _217_
*264 _218_
*265 _219_
*266 _220_
*267 _221_
*268 _222_
*269 _223_
*270 _224_
*271 _225_
*272 _226_
*273 _227_
*274 _228_
*275 _229_
*276 _230_
*277 _231_
*278 _232_
*279 _233_
*280 _234_
*281 _235_
*282 _236_
*283 _237_
*284 _238_
*285 _239_
*286 _240_
*287 _241_
*288 _242_
*289 _243_
*290 _244_
*291 _245_
*292 _246_
*293 _247_
*294 _248_
*295 _249_
*296 _250_
*297 _251_
*298 _252_
*299 _253_
*300 _254_
*301 _255_
*302 _256_
*303 _257_
*304 _258_
*305 _259_
*306 _260_
*307 _261_
*308 _262_
*309 _263_
*310 _264_
*311 _265_
*312 _266_
*313 _267_
*314 _268_
*315 _269_
*316 _270_
*317 _271_
*318 _272_
*319 _273_
*320 _274_
*321 _275_
*322 _276_
*323 _277_
*324 _278_
*325 _279_
*326 _280_
*327 _281_
*328 _282_
*329 _283_
*330 _284_
*331 _285_
*332 _286_
*333 _287_
*334 _288_
*335 _289_
*336 _290_
*337 _291_
*338 _292_
*339 _293_
*340 _294_
*341 _295_
*342 _296_
*343 _297_
*344 _298_
*345 _299_
*346 adj_y\[0\]
*347 adj_y\[1\]
*348 adj_y\[2\]
*349 adj_y\[3\]
*350 adj_y\[4\]
*351 adj_y\[5\]
*352 cell_clk
*353 cell_state\[0\]
*354 cell_state\[10\]
*355 cell_state\[11\]
*356 cell_state\[12\]
*357 cell_state\[13\]
*358 cell_state\[14\]
*359 cell_state\[15\]
*360 cell_state\[1\]
*361 cell_state\[2\]
*362 cell_state\[3\]
*363 cell_state\[4\]
*364 cell_state\[5\]
*365 cell_state\[6\]
*366 cell_state\[7\]
*367 cell_state\[8\]
*368 cell_state\[9\]
*369 clk_regs
*370 clknet_0_cell_clk
*371 clknet_0_clk
*372 clknet_0_clk_regs
*373 clknet_1_0__leaf_cell_clk
*374 clknet_1_0__leaf_clk
*375 clknet_1_1__leaf_cell_clk
*376 clknet_1_1__leaf_clk
*377 clknet_3_0__leaf_clk_regs
*378 clknet_3_1__leaf_clk_regs
*379 clknet_3_2__leaf_clk_regs
*380 clknet_3_3__leaf_clk_regs
*381 clknet_3_4__leaf_clk_regs
*382 clknet_3_5__leaf_clk_regs
*383 clknet_3_6__leaf_clk_regs
*384 clknet_3_7__leaf_clk_regs
*385 counter\[0\]
*386 counter\[1\]
*387 counter\[2\]
*388 counter\[3\]
*389 counter\[4\]
*390 counter\[5\]
*391 counter\[6\]
*392 counter\[7\]
*393 counter\[8\]
*394 counter\[9\]
*395 delaynet_0_clk
*396 delaynet_1_clk
*397 delaynet_2_clk
*398 hsync
*399 hsync_r
*400 lfsr\[0\]
*401 lfsr\[10\]
*402 lfsr\[11\]
*403 lfsr\[12\]
*404 lfsr\[13\]
*405 lfsr\[14\]
*406 lfsr\[15\]
*407 lfsr\[16\]
*408 lfsr\[17\]
*409 lfsr\[18\]
*410 lfsr\[19\]
*411 lfsr\[1\]
*412 lfsr\[2\]
*413 lfsr\[3\]
*414 lfsr\[4\]
*415 lfsr\[5\]
*416 lfsr\[6\]
*417 lfsr\[7\]
*418 lfsr\[8\]
*419 lfsr\[9\]
*420 net1
*421 net10
*422 net11
*423 net12
*424 net13
*425 net14
*426 net15
*427 net16
*428 net17
*429 net18
*430 net19
*431 net2
*432 net20
*433 net21
*434 net22
*435 net23
*436 net3
*437 net39
*438 net4
*439 net40
*440 net41
*441 net42
*442 net43
*443 net44
*444 net45
*445 net46
*446 net47
*447 net48
*448 net5
*449 net6
*450 net7
*451 net8
*452 net9
*453 rom_q\[0\]
*454 rom_q\[1\]
*455 rom_q\[2\]
*456 rom_q\[3\]
*457 timing\.count\[0\]
*458 timing\.count\[10\]
*459 timing\.count\[11\]
*460 timing\.count\[12\]
*461 timing\.count\[13\]
*462 timing\.count\[14\]
*463 timing\.count\[15\]
*464 timing\.count\[16\]
*465 timing\.count\[17\]
*466 timing\.count\[18\]
*467 timing\.count\[19\]
*468 timing\.count\[1\]
*469 timing\.count\[2\]
*470 timing\.count\[3\]
*471 timing\.count\[4\]
*472 timing\.count\[5\]
*473 timing\.count\[6\]
*474 timing\.count\[7\]
*475 timing\.count\[8\]
*476 timing\.count\[9\]
*477 timing\.count_max
*478 timing\.count_rst_n
*479 timing\.vsync
*480 vsync_r
*481 was_cell
*482 was_tt_sq
*483 CG
*484 FILLER_0_1
*485 FILLER_0_4
*486 FILLER_0_7
*487 FILLER_10_1
*488 FILLER_10_113
*489 FILLER_10_116
*490 FILLER_10_125
*491 FILLER_10_128
*492 FILLER_10_131
*493 FILLER_10_137
*494 FILLER_10_162
*495 FILLER_10_182
*496 FILLER_10_196
*497 FILLER_10_225
*498 FILLER_10_251
*499 FILLER_10_286
*500 FILLER_10_326
*501 FILLER_10_329
*502 FILLER_10_332
*503 FILLER_10_335
*504 FILLER_10_337
*505 FILLER_10_340
*506 FILLER_10_4
*507 FILLER_10_43
*508 FILLER_10_63
*509 FILLER_10_66
*510 FILLER_10_82
*511 FILLER_10_85
*512 FILLER_10_88
*513 FILLER_10_91
*514 FILLER_10_94
*515 FILLER_10_97
*516 FILLER_11_1
*517 FILLER_11_116
*518 FILLER_11_125
*519 FILLER_11_128
*520 FILLER_11_131
*521 FILLER_11_138
*522 FILLER_11_141
*523 FILLER_11_177
*524 FILLER_11_18
*525 FILLER_11_186
*526 FILLER_11_197
*527 FILLER_11_200
*528 FILLER_11_21
*529 FILLER_11_24
*530 FILLER_11_240
*531 FILLER_11_27
*532 FILLER_11_305
*533 FILLER_11_309
*534 FILLER_11_331
*535 FILLER_11_334
*536 FILLER_11_337
*537 FILLER_11_340
*538 FILLER_11_4
*539 FILLER_11_80
*540 FILLER_11_83
*541 FILLER_12_1
*542 FILLER_12_109
*543 FILLER_12_113
*544 FILLER_12_126
*545 FILLER_12_135
*546 FILLER_12_187
*547 FILLER_12_190
*548 FILLER_12_214
*549 FILLER_12_253
*550 FILLER_12_277
*551 FILLER_12_328
*552 FILLER_12_331
*553 FILLER_12_334
*554 FILLER_12_337
*555 FILLER_12_340
*556 FILLER_12_4
*557 FILLER_12_47
*558 FILLER_12_57
*559 FILLER_12_60
*560 FILLER_12_80
*561 FILLER_12_83
*562 FILLER_12_86
*563 FILLER_12_89
*564 FILLER_13_1
*565 FILLER_13_109
*566 FILLER_13_112
*567 FILLER_13_122
*568 FILLER_13_125
*569 FILLER_13_128
*570 FILLER_13_131
*571 FILLER_13_141
*572 FILLER_13_144
*573 FILLER_13_155
*574 FILLER_13_158
*575 FILLER_13_18
*576 FILLER_13_195
*577 FILLER_13_197
*578 FILLER_13_200
*579 FILLER_13_21
*580 FILLER_13_234
*581 FILLER_13_24
*582 FILLER_13_253
*583 FILLER_13_27
*584 FILLER_13_279
*585 FILLER_13_307
*586 FILLER_13_326
*587 FILLER_13_329
*588 FILLER_13_332
*589 FILLER_13_335
*590 FILLER_13_338
*591 FILLER_13_341
*592 FILLER_13_4
*593 FILLER_13_41
*594 FILLER_13_61
*595 FILLER_13_64
*596 FILLER_13_79
*597 FILLER_13_82
*598 FILLER_13_85
*599 FILLER_13_88
*600 FILLER_13_91
*601 FILLER_13_94
*602 FILLER_14_1
*603 FILLER_14_113
*604 FILLER_14_116
*605 FILLER_14_153
*606 FILLER_14_184
*607 FILLER_14_217
*608 FILLER_14_251
*609 FILLER_14_28
*610 FILLER_14_298
*611 FILLER_14_325
*612 FILLER_14_328
*613 FILLER_14_331
*614 FILLER_14_334
*615 FILLER_14_337
*616 FILLER_14_340
*617 FILLER_14_36
*618 FILLER_14_54
*619 FILLER_14_57
*620 FILLER_14_60
*621 FILLER_15_1
*622 FILLER_15_100
*623 FILLER_15_110
*624 FILLER_15_113
*625 FILLER_15_116
*626 FILLER_15_125
*627 FILLER_15_13
*628 FILLER_15_131
*629 FILLER_15_16
*630 FILLER_15_164
*631 FILLER_15_167
*632 FILLER_15_178
*633 FILLER_15_19
*634 FILLER_15_193
*635 FILLER_15_22
*636 FILLER_15_248
*637 FILLER_15_25
*638 FILLER_15_251
*639 FILLER_15_285
*640 FILLER_15_29
*641 FILLER_15_318
*642 FILLER_15_321
*643 FILLER_15_324
*644 FILLER_15_327
*645 FILLER_15_330
*646 FILLER_15_333
*647 FILLER_15_336
*648 FILLER_15_339
*649 FILLER_15_342
*650 FILLER_15_38
*651 FILLER_15_4
*652 FILLER_15_41
*653 FILLER_15_44
*654 FILLER_15_47
*655 FILLER_15_50
*656 FILLER_15_65
*657 FILLER_15_68
*658 FILLER_15_71
*659 FILLER_15_74
*660 FILLER_15_77
*661 FILLER_15_80
*662 FILLER_15_83
*663 FILLER_15_85
*664 FILLER_15_88
*665 FILLER_15_91
*666 FILLER_15_94
*667 FILLER_15_97
*668 FILLER_16_1
*669 FILLER_16_10
*670 FILLER_16_110
*671 FILLER_16_116
*672 FILLER_16_121
*673 FILLER_16_13
*674 FILLER_16_16
*675 FILLER_16_166
*676 FILLER_16_186
*677 FILLER_16_19
*678 FILLER_16_191
*679 FILLER_16_194
*680 FILLER_16_197
*681 FILLER_16_219
*682 FILLER_16_22
*683 FILLER_16_222
*684 FILLER_16_242
*685 FILLER_16_245
*686 FILLER_16_25
*687 FILLER_16_273
*688 FILLER_16_29
*689 FILLER_16_307
*690 FILLER_16_309
*691 FILLER_16_32
*692 FILLER_16_325
*693 FILLER_16_328
*694 FILLER_16_331
*695 FILLER_16_334
*696 FILLER_16_337
*697 FILLER_16_340
*698 FILLER_16_35
*699 FILLER_16_38
*700 FILLER_16_4
*701 FILLER_16_41
*702 FILLER_16_44
*703 FILLER_16_47
*704 FILLER_16_50
*705 FILLER_16_53
*706 FILLER_16_57
*707 FILLER_16_60
*708 FILLER_16_63
*709 FILLER_16_67
*710 FILLER_16_7
*711 FILLER_16_73
*712 FILLER_16_79
*713 FILLER_16_85
*714 FILLER_16_91
*715 FILLER_16_97
*716 FILLER_1_108
*717 FILLER_1_111
*718 FILLER_1_113
*719 FILLER_1_116
*720 FILLER_1_119
*721 FILLER_1_141
*722 FILLER_1_144
*723 FILLER_1_154
*724 FILLER_1_157
*725 FILLER_1_160
*726 FILLER_1_169
*727 FILLER_1_172
*728 FILLER_1_179
*729 FILLER_1_18
*730 FILLER_1_182
*731 FILLER_1_185
*732 FILLER_1_188
*733 FILLER_1_197
*734 FILLER_1_204
*735 FILLER_1_207
*736 FILLER_1_210
*737 FILLER_1_219
*738 FILLER_1_222
*739 FILLER_1_225
*740 FILLER_1_228
*741 FILLER_1_236
*742 FILLER_1_244
*743 FILLER_1_247
*744 FILLER_1_250
*745 FILLER_1_253
*746 FILLER_1_269
*747 FILLER_1_272
*748 FILLER_1_275
*749 FILLER_1_278
*750 FILLER_1_281
*751 FILLER_1_284
*752 FILLER_1_287
*753 FILLER_1_290
*754 FILLER_1_293
*755 FILLER_1_296
*756 FILLER_1_299
*757 FILLER_1_302
*758 FILLER_1_305
*759 FILLER_1_309
*760 FILLER_1_312
*761 FILLER_1_315
*762 FILLER_1_318
*763 FILLER_1_321
*764 FILLER_1_324
*765 FILLER_1_327
*766 FILLER_1_330
*767 FILLER_1_333
*768 FILLER_1_337
*769 FILLER_1_340
*770 FILLER_1_63
*771 FILLER_1_66
*772 FILLER_1_69
*773 FILLER_1_72
*774 FILLER_1_81
*775 FILLER_1_85
*776 FILLER_1_88
*777 FILLER_1_96
*778 FILLER_2_1
*779 FILLER_2_109
*780 FILLER_2_118
*781 FILLER_2_134
*782 FILLER_2_137
*783 FILLER_2_140
*784 FILLER_2_143
*785 FILLER_2_166
*786 FILLER_2_169
*787 FILLER_2_197
*788 FILLER_2_207
*789 FILLER_2_210
*790 FILLER_2_225
*791 FILLER_2_271
*792 FILLER_2_274
*793 FILLER_2_277
*794 FILLER_2_281
*795 FILLER_2_284
*796 FILLER_2_287
*797 FILLER_2_290
*798 FILLER_2_293
*799 FILLER_2_296
*800 FILLER_2_299
*801 FILLER_2_302
*802 FILLER_2_305
*803 FILLER_2_308
*804 FILLER_2_311
*805 FILLER_2_314
*806 FILLER_2_317
*807 FILLER_2_320
*808 FILLER_2_323
*809 FILLER_2_326
*810 FILLER_2_329
*811 FILLER_2_332
*812 FILLER_2_335
*813 FILLER_2_337
*814 FILLER_2_340
*815 FILLER_2_57
*816 FILLER_2_60
*817 FILLER_2_78
*818 FILLER_2_81
*819 FILLER_2_84
*820 FILLER_2_87
*821 FILLER_2_96
*822 FILLER_2_99
*823 FILLER_3_107
*824 FILLER_3_117
*825 FILLER_3_120
*826 FILLER_3_123
*827 FILLER_3_14
*828 FILLER_3_141
*829 FILLER_3_144
*830 FILLER_3_151
*831 FILLER_3_154
*832 FILLER_3_157
*833 FILLER_3_177
*834 FILLER_3_180
*835 FILLER_3_185
*836 FILLER_3_188
*837 FILLER_3_200
*838 FILLER_3_232
*839 FILLER_3_24
*840 FILLER_3_251
*841 FILLER_3_268
*842 FILLER_3_27
*843 FILLER_3_271
*844 FILLER_3_289
*845 FILLER_3_292
*846 FILLER_3_295
*847 FILLER_3_303
*848 FILLER_3_306
*849 FILLER_3_309
*850 FILLER_3_312
*851 FILLER_3_315
*852 FILLER_3_318
*853 FILLER_3_321
*854 FILLER_3_324
*855 FILLER_3_327
*856 FILLER_3_330
*857 FILLER_3_333
*858 FILLER_3_336
*859 FILLER_3_339
*860 FILLER_3_342
*861 FILLER_3_78
*862 FILLER_3_81
*863 FILLER_3_85
*864 FILLER_3_88
*865 FILLER_3_91
*866 FILLER_3_94
*867 FILLER_3_97
*868 FILLER_4_1
*869 FILLER_4_107
*870 FILLER_4_110
*871 FILLER_4_125
*872 FILLER_4_154
*873 FILLER_4_157
*874 FILLER_4_178
*875 FILLER_4_196
*876 FILLER_4_199
*877 FILLER_4_218
*878 FILLER_4_221
*879 FILLER_4_225
*880 FILLER_4_228
*881 FILLER_4_231
*882 FILLER_4_249
*883 FILLER_4_258
*884 FILLER_4_270
*885 FILLER_4_28
*886 FILLER_4_294
*887 FILLER_4_305
*888 FILLER_4_308
*889 FILLER_4_311
*890 FILLER_4_314
*891 FILLER_4_317
*892 FILLER_4_320
*893 FILLER_4_323
*894 FILLER_4_326
*895 FILLER_4_329
*896 FILLER_4_332
*897 FILLER_4_335
*898 FILLER_4_337
*899 FILLER_4_340
*900 FILLER_4_50
*901 FILLER_4_57
*902 FILLER_4_70
*903 FILLER_4_85
*904 FILLER_4_88
*905 FILLER_4_91
*906 FILLER_4_94
*907 FILLER_4_97
*908 FILLER_5_1
*909 FILLER_5_102
*910 FILLER_5_120
*911 FILLER_5_131
*912 FILLER_5_134
*913 FILLER_5_137
*914 FILLER_5_141
*915 FILLER_5_144
*916 FILLER_5_152
*917 FILLER_5_155
*918 FILLER_5_158
*919 FILLER_5_161
*920 FILLER_5_164
*921 FILLER_5_173
*922 FILLER_5_176
*923 FILLER_5_179
*924 FILLER_5_182
*925 FILLER_5_205
*926 FILLER_5_241
*927 FILLER_5_253
*928 FILLER_5_260
*929 FILLER_5_269
*930 FILLER_5_284
*931 FILLER_5_287
*932 FILLER_5_314
*933 FILLER_5_317
*934 FILLER_5_320
*935 FILLER_5_323
*936 FILLER_5_326
*937 FILLER_5_329
*938 FILLER_5_332
*939 FILLER_5_335
*940 FILLER_5_338
*941 FILLER_5_341
*942 FILLER_5_4
*943 FILLER_5_81
*944 FILLER_6_1
*945 FILLER_6_107
*946 FILLER_6_110
*947 FILLER_6_121
*948 FILLER_6_138
*949 FILLER_6_141
*950 FILLER_6_151
*951 FILLER_6_161
*952 FILLER_6_169
*953 FILLER_6_172
*954 FILLER_6_175
*955 FILLER_6_179
*956 FILLER_6_188
*957 FILLER_6_225
*958 FILLER_6_228
*959 FILLER_6_248
*960 FILLER_6_272
*961 FILLER_6_290
*962 FILLER_6_313
*963 FILLER_6_324
*964 FILLER_6_327
*965 FILLER_6_330
*966 FILLER_6_333
*967 FILLER_6_337
*968 FILLER_6_340
*969 FILLER_6_35
*970 FILLER_6_4
*971 FILLER_6_53
*972 FILLER_6_57
*973 FILLER_6_75
*974 FILLER_6_78
*975 FILLER_6_92
*976 FILLER_7_1
*977 FILLER_7_102
*978 FILLER_7_105
*979 FILLER_7_141
*980 FILLER_7_150
*981 FILLER_7_153
*982 FILLER_7_175
*983 FILLER_7_18
*984 FILLER_7_195
*985 FILLER_7_197
*986 FILLER_7_217
*987 FILLER_7_227
*988 FILLER_7_230
*989 FILLER_7_243
*990 FILLER_7_265
*991 FILLER_7_274
*992 FILLER_7_29
*993 FILLER_7_292
*994 FILLER_7_295
*995 FILLER_7_304
*996 FILLER_7_307
*997 FILLER_7_326
*998 FILLER_7_329
*999 FILLER_7_332
*1000 FILLER_7_335
*1001 FILLER_7_338
*1002 FILLER_7_341
*1003 FILLER_7_4
*1004 FILLER_7_68
*1005 FILLER_7_85
*1006 FILLER_8_1
*1007 FILLER_8_109
*1008 FILLER_8_113
*1009 FILLER_8_116
*1010 FILLER_8_119
*1011 FILLER_8_129
*1012 FILLER_8_138
*1013 FILLER_8_153
*1014 FILLER_8_156
*1015 FILLER_8_159
*1016 FILLER_8_169
*1017 FILLER_8_172
*1018 FILLER_8_175
*1019 FILLER_8_183
*1020 FILLER_8_211
*1021 FILLER_8_214
*1022 FILLER_8_223
*1023 FILLER_8_225
*1024 FILLER_8_228
*1025 FILLER_8_246
*1026 FILLER_8_267
*1027 FILLER_8_270
*1028 FILLER_8_307
*1029 FILLER_8_315
*1030 FILLER_8_326
*1031 FILLER_8_329
*1032 FILLER_8_332
*1033 FILLER_8_335
*1034 FILLER_8_337
*1035 FILLER_8_340
*1036 FILLER_8_63
*1037 FILLER_8_80
*1038 FILLER_8_95
*1039 FILLER_9_1
*1040 FILLER_9_101
*1041 FILLER_9_111
*1042 FILLER_9_121
*1043 FILLER_9_136
*1044 FILLER_9_139
*1045 FILLER_9_141
*1046 FILLER_9_169
*1047 FILLER_9_197
*1048 FILLER_9_21
*1049 FILLER_9_226
*1050 FILLER_9_251
*1051 FILLER_9_253
*1052 FILLER_9_265
*1053 FILLER_9_290
*1054 FILLER_9_309
*1055 FILLER_9_327
*1056 FILLER_9_330
*1057 FILLER_9_333
*1058 FILLER_9_336
*1059 FILLER_9_339
*1060 FILLER_9_342
*1061 FILLER_9_77
*1062 FILLER_9_80
*1063 FILLER_9_83
*1064 FILLER_9_85
*1065 PHY_EDGE_ROW_23_1_Left_17
*1066 PHY_EDGE_ROW_23_1_Right_0
*1067 PHY_EDGE_ROW_24_Left_18
*1068 PHY_EDGE_ROW_24_Right_1
*1069 PHY_EDGE_ROW_25_Left_19
*1070 PHY_EDGE_ROW_25_Right_2
*1071 PHY_EDGE_ROW_26_Left_20
*1072 PHY_EDGE_ROW_26_Right_3
*1073 PHY_EDGE_ROW_27_Left_21
*1074 PHY_EDGE_ROW_27_Right_4
*1075 PHY_EDGE_ROW_28_Left_22
*1076 PHY_EDGE_ROW_28_Right_5
*1077 PHY_EDGE_ROW_29_Left_23
*1078 PHY_EDGE_ROW_29_Right_6
*1079 PHY_EDGE_ROW_30_Left_24
*1080 PHY_EDGE_ROW_30_Right_7
*1081 PHY_EDGE_ROW_31_Left_25
*1082 PHY_EDGE_ROW_31_Right_8
*1083 PHY_EDGE_ROW_32_Left_26
*1084 PHY_EDGE_ROW_32_Right_9
*1085 PHY_EDGE_ROW_33_Left_27
*1086 PHY_EDGE_ROW_33_Right_10
*1087 PHY_EDGE_ROW_34_Left_28
*1088 PHY_EDGE_ROW_34_Right_11
*1089 PHY_EDGE_ROW_35_Left_29
*1090 PHY_EDGE_ROW_35_Right_12
*1091 PHY_EDGE_ROW_36_Left_30
*1092 PHY_EDGE_ROW_36_Right_13
*1093 PHY_EDGE_ROW_37_Left_31
*1094 PHY_EDGE_ROW_37_Right_14
*1095 PHY_EDGE_ROW_38_Left_32
*1096 PHY_EDGE_ROW_38_Right_15
*1097 PHY_EDGE_ROW_39_Left_33
*1098 PHY_EDGE_ROW_39_Right_16
*1099 TAP_TAPCELL_ROW_24_34
*1100 TAP_TAPCELL_ROW_24_35
*1101 TAP_TAPCELL_ROW_24_36
*1102 TAP_TAPCELL_ROW_24_37
*1103 TAP_TAPCELL_ROW_24_38
*1104 TAP_TAPCELL_ROW_24_39
*1105 TAP_TAPCELL_ROW_24_40
*1106 TAP_TAPCELL_ROW_24_41
*1107 TAP_TAPCELL_ROW_24_42
*1108 TAP_TAPCELL_ROW_24_43
*1109 TAP_TAPCELL_ROW_24_44
*1110 TAP_TAPCELL_ROW_24_45
*1111 TAP_TAPCELL_ROW_25_46
*1112 TAP_TAPCELL_ROW_25_47
*1113 TAP_TAPCELL_ROW_25_48
*1114 TAP_TAPCELL_ROW_25_49
*1115 TAP_TAPCELL_ROW_25_50
*1116 TAP_TAPCELL_ROW_25_51
*1117 TAP_TAPCELL_ROW_26_52
*1118 TAP_TAPCELL_ROW_26_53
*1119 TAP_TAPCELL_ROW_26_54
*1120 TAP_TAPCELL_ROW_26_55
*1121 TAP_TAPCELL_ROW_26_56
*1122 TAP_TAPCELL_ROW_26_57
*1123 TAP_TAPCELL_ROW_27_58
*1124 TAP_TAPCELL_ROW_27_59
*1125 TAP_TAPCELL_ROW_27_60
*1126 TAP_TAPCELL_ROW_27_61
*1127 TAP_TAPCELL_ROW_27_62
*1128 TAP_TAPCELL_ROW_27_63
*1129 TAP_TAPCELL_ROW_28_64
*1130 TAP_TAPCELL_ROW_28_65
*1131 TAP_TAPCELL_ROW_28_66
*1132 TAP_TAPCELL_ROW_28_67
*1133 TAP_TAPCELL_ROW_28_68
*1134 TAP_TAPCELL_ROW_28_69
*1135 TAP_TAPCELL_ROW_29_70
*1136 TAP_TAPCELL_ROW_29_71
*1137 TAP_TAPCELL_ROW_29_72
*1138 TAP_TAPCELL_ROW_29_73
*1139 TAP_TAPCELL_ROW_29_74
*1140 TAP_TAPCELL_ROW_29_75
*1141 TAP_TAPCELL_ROW_30_76
*1142 TAP_TAPCELL_ROW_30_77
*1143 TAP_TAPCELL_ROW_30_78
*1144 TAP_TAPCELL_ROW_30_79
*1145 TAP_TAPCELL_ROW_30_80
*1146 TAP_TAPCELL_ROW_30_81
*1147 TAP_TAPCELL_ROW_31_82
*1148 TAP_TAPCELL_ROW_31_83
*1149 TAP_TAPCELL_ROW_31_84
*1150 TAP_TAPCELL_ROW_31_85
*1151 TAP_TAPCELL_ROW_31_86
*1152 TAP_TAPCELL_ROW_31_87
*1153 TAP_TAPCELL_ROW_32_88
*1154 TAP_TAPCELL_ROW_32_89
*1155 TAP_TAPCELL_ROW_32_90
*1156 TAP_TAPCELL_ROW_32_91
*1157 TAP_TAPCELL_ROW_32_92
*1158 TAP_TAPCELL_ROW_32_93
*1159 TAP_TAPCELL_ROW_33_94
*1160 TAP_TAPCELL_ROW_33_95
*1161 TAP_TAPCELL_ROW_33_96
*1162 TAP_TAPCELL_ROW_33_97
*1163 TAP_TAPCELL_ROW_33_98
*1164 TAP_TAPCELL_ROW_33_99
*1165 TAP_TAPCELL_ROW_34_100
*1166 TAP_TAPCELL_ROW_34_101
*1167 TAP_TAPCELL_ROW_34_102
*1168 TAP_TAPCELL_ROW_34_103
*1169 TAP_TAPCELL_ROW_34_104
*1170 TAP_TAPCELL_ROW_34_105
*1171 TAP_TAPCELL_ROW_35_106
*1172 TAP_TAPCELL_ROW_35_107
*1173 TAP_TAPCELL_ROW_35_108
*1174 TAP_TAPCELL_ROW_35_109
*1175 TAP_TAPCELL_ROW_35_110
*1176 TAP_TAPCELL_ROW_35_111
*1177 TAP_TAPCELL_ROW_36_112
*1178 TAP_TAPCELL_ROW_36_113
*1179 TAP_TAPCELL_ROW_36_114
*1180 TAP_TAPCELL_ROW_36_115
*1181 TAP_TAPCELL_ROW_36_116
*1182 TAP_TAPCELL_ROW_36_117
*1183 TAP_TAPCELL_ROW_37_118
*1184 TAP_TAPCELL_ROW_37_119
*1185 TAP_TAPCELL_ROW_37_120
*1186 TAP_TAPCELL_ROW_37_121
*1187 TAP_TAPCELL_ROW_37_122
*1188 TAP_TAPCELL_ROW_37_123
*1189 TAP_TAPCELL_ROW_38_124
*1190 TAP_TAPCELL_ROW_38_125
*1191 TAP_TAPCELL_ROW_38_126
*1192 TAP_TAPCELL_ROW_38_127
*1193 TAP_TAPCELL_ROW_38_128
*1194 TAP_TAPCELL_ROW_38_129
*1195 TAP_TAPCELL_ROW_39_130
*1196 TAP_TAPCELL_ROW_39_131
*1197 TAP_TAPCELL_ROW_39_132
*1198 TAP_TAPCELL_ROW_39_133
*1199 TAP_TAPCELL_ROW_39_134
*1200 TAP_TAPCELL_ROW_39_135
*1201 TAP_TAPCELL_ROW_39_136
*1202 TAP_TAPCELL_ROW_39_137
*1203 TAP_TAPCELL_ROW_39_138
*1204 TAP_TAPCELL_ROW_39_139
*1205 TAP_TAPCELL_ROW_39_140
*1206 TAP_TAPCELL_ROW_39_141
*1207 _301_
*1208 _302_
*1209 _303_
*1210 _304_
*1211 _305_
*1212 _306_
*1213 _307_
*1214 _308_
*1215 _309_
*1216 _310_
*1217 _311_
*1218 _312_
*1219 _313_
*1220 _314_
*1221 _315_
*1222 _316_
*1223 _317_
*1224 _318_
*1225 _319_
*1226 _320_
*1227 _321_
*1228 _322_
*1229 _323_
*1230 _324_
*1231 _325_
*1232 _326_
*1233 _327_
*1234 _328_
*1235 _329_
*1236 _330_
*1237 _331_
*1238 _332_
*1239 _333_
*1240 _334_
*1241 _335_
*1242 _336_
*1243 _337_
*1244 _338_
*1245 _339_
*1246 _340_
*1247 _341_
*1248 _342_
*1249 _343_
*1250 _344_
*1251 _345_
*1252 _346_
*1253 _347_
*1254 _348_
*1255 _349_
*1256 _350_
*1257 _351_
*1258 _352_
*1259 _353_
*1260 _354_
*1261 _355_
*1262 _356_
*1263 _357_
*1264 _358_
*1265 _359_
*1266 _360_
*1267 _361_
*1268 _362_
*1269 _363_
*1270 _364_
*1271 _365_
*1272 _366_
*1273 _367_
*1274 _368_
*1275 _369_
*1276 _370_
*1277 _371_
*1278 _372_
*1279 _373_
*1280 _374_
*1281 _375_
*1282 _376_
*1283 _377_
*1284 _378_
*1285 _379_
*1286 _380_
*1287 _381_
*1288 _382_
*1289 _383_
*1290 _384_
*1291 _385_
*1292 _386_
*1293 _387_
*1294 _388_
*1295 _389_
*1296 _390_
*1297 _391_
*1298 _392_
*1299 _393_
*1300 _394_
*1301 _395_
*1302 _396_
*1303 _397_
*1304 _398_
*1305 _399_
*1306 _400_
*1307 _401_
*1308 _402_
*1309 _403_
*1310 _404_
*1311 _405_
*1312 _406_
*1313 _407_
*1314 _408_
*1315 _409_
*1316 _410_
*1317 _411_
*1318 _412_
*1319 _413_
*1320 _414_
*1321 _415_
*1322 _416_
*1323 _417_
*1324 _418_
*1325 _419_
*1326 _420_
*1327 _421_
*1328 _422_
*1329 _423_
*1330 _424_
*1331 _425_
*1332 _426_
*1333 _427_
*1334 _428_
*1335 _429_
*1336 _430_
*1337 _431_
*1338 _432_
*1339 _433_
*1340 _434_
*1341 _435_
*1342 _436_
*1343 _437_
*1344 _438_
*1345 _439_
*1346 _440_
*1347 _441_
*1348 _442_
*1349 _443_
*1350 _444_
*1351 _445_
*1352 _446_
*1353 _447_
*1354 _448_
*1355 _449_
*1356 _450_
*1357 _451_
*1358 _452_
*1359 _453_
*1360 _454_
*1361 _455_
*1362 _456_
*1363 _457_
*1364 _458_
*1365 _459_
*1366 _460_
*1367 _461_
*1368 _462_
*1369 _463_
*1370 _464_
*1371 _465_
*1372 _466_
*1373 _467_
*1374 _468_
*1375 _469_
*1376 _470_
*1377 _471_
*1378 _472_
*1379 _473_
*1380 _474_
*1381 _475_
*1382 _476_
*1383 _477_
*1384 _478_
*1385 _479_
*1386 _480_
*1387 _481_
*1388 _482_
*1389 _483_
*1390 _484_
*1391 _485_
*1392 _486_
*1393 _487_
*1394 _488_
*1395 _489_
*1396 _490_
*1397 _491_
*1398 _492_
*1399 _493_
*1400 _494_
*1401 _495_
*1402 _496_
*1403 _497_
*1404 _498_
*1405 _499_
*1406 _500_
*1407 _501_
*1408 _502_
*1409 _503_
*1410 _504_
*1411 _505_
*1412 _506_
*1413 _507_
*1414 _508_
*1415 _509_
*1416 _510_
*1417 _511_
*1418 _512_
*1419 _513_
*1420 _514_
*1421 _515_
*1422 _516_
*1423 _517_
*1424 _518_
*1425 _519_
*1426 _520_
*1427 _521_
*1428 _522_
*1429 _523_
*1430 _524_
*1431 _525_
*1432 _526_
*1433 _527_
*1434 _528_
*1435 _529_
*1436 _530_
*1437 _531_
*1438 _532_
*1439 _533_
*1440 _534_
*1441 _535_
*1442 _536_
*1443 _537_
*1444 _538_
*1445 _539_
*1446 _540_
*1447 _541_
*1448 _542_
*1449 _543_
*1450 _544_
*1451 _545_
*1452 _546_
*1453 _547_
*1454 _548_
*1455 _549_
*1456 _550_
*1457 _551_
*1458 _552_
*1459 _553_
*1460 _554_
*1461 _555_
*1462 _556_
*1463 _557_
*1464 _558_
*1465 _559_
*1466 _560_
*1467 _561_
*1468 _562_
*1469 _563_
*1470 _564_
*1471 _565_
*1472 _566_
*1473 _567_
*1474 _568_
*1475 _569_
*1476 _570_
*1477 _571_
*1478 _572_
*1479 _573_
*1480 _574_
*1481 _575_
*1482 _576_
*1483 _577_
*1484 _578_
*1485 _579_
*1486 _580_
*1487 _581_
*1488 _582_
*1489 _583_
*1490 _584_
*1491 _585_
*1492 _586_
*1493 _587_
*1494 _588_
*1495 _589_
*1496 _590_
*1497 _591_
*1498 _592_
*1499 _593_
*1500 _594_
*1501 _595_
*1502 _596_
*1503 _597_
*1504 _598_
*1505 _599_
*1506 _600_
*1507 _601_
*1508 _602_
*1509 _603_
*1510 _604_
*1511 _605_
*1512 _606_
*1513 _607_
*1514 _608_
*1515 _609_
*1516 _610_
*1517 _611_
*1518 _612_
*1519 _613_
*1520 _614_
*1521 _615_
*1522 _616_
*1523 _617_
*1524 _618_
*1525 _619_
*1526 _620_
*1527 _621_
*1528 _622_
*1529 _623_
*1530 _624_
*1531 _625_
*1532 _626_
*1533 _627_
*1534 _628_
*1535 _629_
*1536 _630_
*1537 _631_
*1538 _632_
*1539 _633_
*1540 _634_
*1541 _635_
*1542 _636_
*1543 _637_
*1544 _638_
*1545 _639_
*1546 _640_
*1547 _641_
*1548 _642_
*1549 _643_
*1550 _644_
*1551 _645_
*1552 _646_
*1553 _647_
*1554 _648_
*1555 _649_
*1556 _650_
*1557 _651_
*1558 _652_
*1559 _653_
*1560 _654_
*1561 _655_
*1562 _656_
*1563 _657_
*1564 _658_
*1565 _659_
*1566 _660_
*1567 _661_
*1568 _662_
*1569 _663_
*1570 _664_
*1571 _682_
*1572 _683_
*1573 clkbuf_0_cell_clk
*1574 clkbuf_0_clk
*1575 clkbuf_0_clk_regs
*1576 clkbuf_1_0__f_cell_clk
*1577 clkbuf_1_0__f_clk
*1578 clkbuf_1_1__f_cell_clk
*1579 clkbuf_1_1__f_clk
*1580 clkbuf_3_0__f_clk_regs
*1581 clkbuf_3_1__f_clk_regs
*1582 clkbuf_3_2__f_clk_regs
*1583 clkbuf_3_3__f_clk_regs
*1584 clkbuf_3_4__f_clk_regs
*1585 clkbuf_3_5__f_clk_regs
*1586 clkbuf_3_6__f_clk_regs
*1587 clkbuf_3_7__f_clk_regs
*1588 clkbuf_regs_0_clk
*1589 clkload0
*1590 delaybuf_0_clk
*1591 delaybuf_1_clk
*1592 delaybuf_2_clk
*1593 fanout10
*1594 fanout11
*1595 fanout12
*1596 fanout13
*1597 fanout14
*1598 fanout15
*1599 fanout16
*1600 fanout18
*1601 fanout2
*1602 fanout20
*1603 fanout21
*1604 fanout22
*1605 fanout3
*1606 fanout4
*1607 fanout5
*1608 fanout6
*1609 fanout7
*1610 fanout8
*1611 fanout9
*1612 hold40
*1613 hold41
*1614 hold42
*1615 hold43
*1616 hold44
*1617 hold45
*1618 hold46
*1619 hold47
*1620 hold48
*1621 input1
*1622 load_slew17
*1623 load_slew19
*1624 max_cap23
*1625 sprite
*1626 timing\.counter
*1627 timing\.counter_39
*1628 timing\.i_and
*1629 timing\.i_nand
*1630 tt_um_rebelmike_asic_odyssey
*1631 tt_um_rebelmike_asic_odyssey_24
*1632 tt_um_rebelmike_asic_odyssey_25
*1633 tt_um_rebelmike_asic_odyssey_26
*1634 tt_um_rebelmike_asic_odyssey_27
*1635 tt_um_rebelmike_asic_odyssey_28
*1636 tt_um_rebelmike_asic_odyssey_29
*1637 tt_um_rebelmike_asic_odyssey_30
*1638 tt_um_rebelmike_asic_odyssey_31
*1639 tt_um_rebelmike_asic_odyssey_32
*1640 tt_um_rebelmike_asic_odyssey_33
*1641 tt_um_rebelmike_asic_odyssey_34
*1642 tt_um_rebelmike_asic_odyssey_35
*1643 tt_um_rebelmike_asic_odyssey_36
*1644 tt_um_rebelmike_asic_odyssey_37
*1645 tt_um_rebelmike_asic_odyssey_38

*PORTS
clk I
ena I
rst_n I
ui_in[0] I
ui_in[1] I
ui_in[2] I
ui_in[3] I
ui_in[4] I
ui_in[5] I
ui_in[6] I
ui_in[7] I
uio_in[0] I
uio_in[1] I
uio_in[2] I
uio_in[3] I
uio_in[4] I
uio_in[5] I
uio_in[6] I
uio_in[7] I
uio_oe[0] O
uio_oe[1] O
uio_oe[2] O
uio_oe[3] O
uio_oe[4] O
uio_oe[5] O
uio_oe[6] O
uio_oe[7] O
uio_out[0] O
uio_out[1] O
uio_out[2] O
uio_out[3] O
uio_out[4] O
uio_out[5] O
uio_out[6] O
uio_out[7] O
uo_out[0] O
uo_out[1] O
uo_out[2] O
uo_out[3] O
uo_out[4] O
uo_out[5] O
uo_out[6] O
uo_out[7] O

*D_NET *3 0.0257229
*CONN
*P clk I
*I *1592:A I *D sky130_fd_sc_hd__clkbuf_16
*I *1574:A I *D sky130_fd_sc_hd__clkbuf_16
*CAP
1 clk 0.00161941
2 *1592:A 0
3 *1574:A 0
4 *3:49 0.000183597
5 *3:45 0.0092414
6 *3:24 0.00910876
7 *3:22 5.09572e-05
8 *3:18 0.00161941
9 *3:18 uo_out[4] 0.000212861
10 *3:18 *1492:S 1.1197e-05
11 *3:18 *1493:B 5.41926e-05
12 *3:18 *1559:D 0.000154923
13 *3:18 *1621:A 0.000267163
14 *3:18 *420:12 0.000246685
15 *3:18 *425:130 6.71861e-06
16 *3:24 *1492:S 7.53084e-05
17 *3:24 *425:115 9.60939e-05
18 *3:45 *1211:A 2.58015e-05
19 *3:45 *1244:C 6.37933e-06
20 *3:45 *1457:B1 1.83766e-05
21 *3:45 *1458:A2 0
22 *3:45 *1458:C1 6.18969e-06
23 *3:45 *1467:A1 0.000190868
24 *3:45 *1475:B 0
25 *3:45 *1492:S 0.000217727
26 *3:45 *1544:D 0.000549357
27 *3:45 *1550:D 0
28 *3:45 *1625:addr[5] 0.000200142
29 *3:45 *312:8 0
30 *3:45 *322:16 0.000186427
31 *3:45 *372:87 0.000765539
32 *3:45 *381:40 0
33 *3:45 *397:15 0
34 *3:45 *425:115 0
35 *3:45 *467:115 0
36 *3:45 *472:77 0.000207038
37 *3:49 *1356:B 2.34423e-05
38 *3:49 *1387:A2 7.58189e-05
39 *3:49 *1388:A 0.000117057
40 *3:49 *473:33 9.64487e-05
41 *3:49 *474:32 8.76026e-05
*RES
1 clk *3:18 13.2481 
2 *3:18 *3:22 4.5 
3 *3:22 *3:24 1.46875 
4 *3:24 *3:45 47.1732 
5 *3:45 *3:49 8.8475 
6 *3:49 *1574:A 13.8 
7 *3:22 *1592:A 9.3 
*END

*D_NET *5 0.00150077
*CONN
*P rst_n I
*I *1621:A I *D sky130_fd_sc_hd__buf_1
*CAP
1 rst_n 0.000548168
2 *1621:A 0.000548168
3 *1621:A *1563:CLK 1.02504e-05
4 *1621:A *384:8 5.74683e-05
5 *1621:A *403:10 6.95556e-05
6 *3:18 *1621:A 0.000267163
*RES
1 rst_n *1621:A 23.0079 
*END

*D_NET *22 0.000555888
*CONN
*P uio_oe[0] O
*I *1630:LO O *D sky130_fd_sc_hd__conb_1
*CAP
1 uio_oe[0] 0.000257029
2 *1630:LO 0.000257029
3 uio_oe[0] uio_oe[1] 1.63602e-05
4 uio_oe[0] uio_out[7] 1.63602e-05
5 uio_oe[0] *1572:A 9.11048e-06
*RES
1 *1630:LO uio_oe[0] 23.5854 
*END

*D_NET *23 0.000482266
*CONN
*P uio_oe[1] O
*I *1631:LO O *D sky130_fd_sc_hd__conb_1
*CAP
1 uio_oe[1] 0.000222521
2 *1631:LO 0.000222521
3 uio_oe[1] uio_oe[2] 2.08644e-05
4 uio_oe[0] uio_oe[1] 1.63602e-05
*RES
1 *1631:LO uio_oe[1] 23.5134 
*END

*D_NET *24 0.000508645
*CONN
*P uio_oe[2] O