*SPEF "ieee 1481-1999"
*DESIGN "tt_um_sprite_rom_test"
*DATE "17:34:41 Saturday March 21, 2026"
*VENDOR "The OpenROAD Project"
*PROGRAM "OpenROAD"
*VERSION "dcf36133a369abc8f3c5e5738cd4d82e4903c0e0"
*DESIGN_FLOW "NAME_SCOPE LOCAL" "PIN_CAP NONE"
*DIVIDER /
*DELIMITER :
*BUS_DELIMITER []
*T_UNIT 1 NS
*C_UNIT 1 PF
*R_UNIT 1 OHM
*L_UNIT 1 HENRY

*NAME_MAP
*3 clk
*4 ena
*5 rst_n
*6 ui_in[0]
*7 ui_in[1]
*8 ui_in[2]
*9 ui_in[3]
*10 ui_in[4]
*11 ui_in[5]
*12 ui_in[6]
*13 ui_in[7]
*14 uio_in[0]
*15 uio_in[1]
*16 uio_in[2]
*17 uio_in[3]
*18 uio_in[4]
*19 uio_in[5]
*20 uio_in[6]
*21 uio_in[7]
*22 net
*23 net10
*24 net11
*25 net12
*26 net13
*27 net14
*28 net15
*29 net16
*30 net17
*31 net18
*32 net19
*33 net20
*34 net21
*35 net22
*36 net23
*37 net24
*38 uo_out[0]
*39 uo_out[1]
*40 uo_out[2]
*41 uo_out[3]
*42 uo_out[4]
*43 uo_out[5]
*44 uo_out[6]
*45 uo_out[7]
*46 _00_
*47 _01_
*48 _02_
*49 _03_
*50 _04_
*51 _05_
*52 _06_
*53 _07_
*54 _08_
*55 _09_
*56 _10_
*57 _11_
*58 _12_
*59 _13_
*60 _14_
*61 _15_
*62 _16_
*63 _17_
*64 _18_
*65 _19_
*66 _20_
*67 _21_
*68 _22_
*69 _23_
*70 _24_
*71 _25_
*72 _26_
*73 clk_regs
*74 clknet_0_clk
*75 clknet_0_clk_regs
*76 clknet_1_0__leaf_clk
*77 clknet_1_0__leaf_clk_regs
*78 clknet_1_1__leaf_clk_regs
*79 hsync
*80 hsync_r
*81 net1
*82 net2
*83 net25
*84 net3
*85 net4
*86 net5
*87 net6
*88 net7
*89 net8
*90 net9
*91 rom_q\[0\]
*92 rom_q\[1\]
*93 rom_q\[2\]
*94 rom_q\[3\]
*95 timing\.count\[0\]
*96 timing\.count\[10\]
*97 timing\.count\[11\]
*98 timing\.count\[12\]
*99 timing\.count\[13\]
*100 timing\.count\[14\]
*101 timing\.count\[15\]
*102 timing\.count\[16\]
*103 timing\.count\[17\]
*104 timing\.count\[18\]
*105 timing\.count\[19\]
*106 timing\.count\[1\]
*107 timing\.count\[2\]
*108 timing\.count\[3\]
*109 timing\.count\[4\]
*110 timing\.count\[5\]
*111 timing\.count\[6\]
*112 timing\.count\[7\]
*113 timing\.count\[8\]
*114 timing\.count\[9\]
*115 timing\.count_max
*116 timing\.count_rst_n
*117 timing\.vsync
*118 vsync_r
*119 ANTENNA_1
*120 ANTENNA_2
*121 ANTENNA_3
*122 ANTENNA_4
*123 FILLER_0_21
*124 FILLER_10_1
*125 FILLER_10_10
*126 FILLER_10_102
*127 FILLER_10_105
*128 FILLER_10_108
*129 FILLER_10_111
*130 FILLER_10_113
*131 FILLER_10_116
*132 FILLER_10_119
*133 FILLER_10_122
*134 FILLER_10_125
*135 FILLER_10_128
*136 FILLER_10_13
*137 FILLER_10_131
*138 FILLER_10_134
*139 FILLER_10_137
*140 FILLER_10_140
*141 FILLER_10_143
*142 FILLER_10_146
*143 FILLER_10_149
*144 FILLER_10_152
*145 FILLER_10_155
*146 FILLER_10_158
*147 FILLER_10_16
*148 FILLER_10_161
*149 FILLER_10_164
*150 FILLER_10_167
*151 FILLER_10_169
*152 FILLER_10_172
*153 FILLER_10_175
*154 FILLER_10_178
*155 FILLER_10_181
*156 FILLER_10_19
*157 FILLER_10_198
*158 FILLER_10_201
*159 FILLER_10_210
*160 FILLER_10_213
*161 FILLER_10_22
*162 FILLER_10_222
*163 FILLER_10_225
*164 FILLER_10_228
*165 FILLER_10_231
*166 FILLER_10_234
*167 FILLER_10_237
*168 FILLER_10_240
*169 FILLER_10_243
*170 FILLER_10_246
*171 FILLER_10_249
*172 FILLER_10_25
*173 FILLER_10_252
*174 FILLER_10_255
*175 FILLER_10_258
*176 FILLER_10_261
*177 FILLER_10_264
*178 FILLER_10_267
*179 FILLER_10_270
*180 FILLER_10_273
*181 FILLER_10_276
*182 FILLER_10_279
*183 FILLER_10_28
*184 FILLER_10_281
*185 FILLER_10_284
*186 FILLER_10_287
*187 FILLER_10_290
*188 FILLER_10_293
*189 FILLER_10_296
*190 FILLER_10_299
*191 FILLER_10_302
*192 FILLER_10_305
*193 FILLER_10_308
*194 FILLER_10_31
*195 FILLER_10_311
*196 FILLER_10_314
*197 FILLER_10_317
*198 FILLER_10_320
*199 FILLER_10_323
*200 FILLER_10_326
*201 FILLER_10_329
*202 FILLER_10_332
*203 FILLER_10_335
*204 FILLER_10_337
*205 FILLER_10_34
*206 FILLER_10_340
*207 FILLER_10_37
*208 FILLER_10_4
*209 FILLER_10_40
*210 FILLER_10_43
*211 FILLER_10_46
*212 FILLER_10_49
*213 FILLER_10_52
*214 FILLER_10_55
*215 FILLER_10_57
*216 FILLER_10_60
*217 FILLER_10_63
*218 FILLER_10_66
*219 FILLER_10_69
*220 FILLER_10_7
*221 FILLER_10_72
*222 FILLER_10_75
*223 FILLER_10_78
*224 FILLER_10_81
*225 FILLER_10_84
*226 FILLER_10_87
*227 FILLER_10_90
*228 FILLER_10_93
*229 FILLER_10_96
*230 FILLER_10_99
*231 FILLER_11_1
*232 FILLER_11_10
*233 FILLER_11_100
*234 FILLER_11_103
*235 FILLER_11_106
*236 FILLER_11_127
*237 FILLER_11_13
*238 FILLER_11_130
*239 FILLER_11_133
*240 FILLER_11_136
*241 FILLER_11_139
*242 FILLER_11_141
*243 FILLER_11_144
*244 FILLER_11_147
*245 FILLER_11_150
*246 FILLER_11_153
*247 FILLER_11_156
*248 FILLER_11_159
*249 FILLER_11_16
*250 FILLER_11_166
*251 FILLER_11_19
*252 FILLER_11_191
*253 FILLER_11_194
*254 FILLER_11_197
*255 FILLER_11_200
*256 FILLER_11_210
*257 FILLER_11_22
*258 FILLER_11_228
*259 FILLER_11_231
*260 FILLER_11_234
*261 FILLER_11_237
*262 FILLER_11_240
*263 FILLER_11_243
*264 FILLER_11_246
*265 FILLER_11_249
*266 FILLER_11_25
*267 FILLER_11_253
*268 FILLER_11_256
*269 FILLER_11_259
*270 FILLER_11_262
*271 FILLER_11_265
*272 FILLER_11_268
*273 FILLER_11_271
*274 FILLER_11_274
*275 FILLER_11_277
*276 FILLER_11_280
*277 FILLER_11_283
*278 FILLER_11_286
*279 FILLER_11_289
*280 FILLER_11_29
*281 FILLER_11_292
*282 FILLER_11_295
*283 FILLER_11_298
*284 FILLER_11_301
*285 FILLER_11_304
*286 FILLER_11_307
*287 FILLER_11_309
*288 FILLER_11_312
*289 FILLER_11_315
*290 FILLER_11_318
*291 FILLER_11_32
*292 FILLER_11_321
*293 FILLER_11_324
*294 FILLER_11_327
*295 FILLER_11_330
*296 FILLER_11_333
*297 FILLER_11_336
*298 FILLER_11_339
*299 FILLER_11_342
*300 FILLER_11_35
*301 FILLER_11_38
*302 FILLER_11_4
*303 FILLER_11_41
*304 FILLER_11_44
*305 FILLER_11_47
*306 FILLER_11_50
*307 FILLER_11_53
*308 FILLER_11_56
*309 FILLER_11_59
*310 FILLER_11_62
*311 FILLER_11_65
*312 FILLER_11_68
*313 FILLER_11_7
*314 FILLER_11_71
*315 FILLER_11_74
*316 FILLER_11_77
*317 FILLER_11_80
*318 FILLER_11_83
*319 FILLER_11_85
*320 FILLER_11_88
*321 FILLER_11_91
*322 FILLER_11_94
*323 FILLER_11_97
*324 FILLER_12_1
*325 FILLER_12_10
*326 FILLER_12_102
*327 FILLER_12_105
*328 FILLER_12_108
*329 FILLER_12_111
*330 FILLER_12_113
*331 FILLER_12_116
*332 FILLER_12_119
*333 FILLER_12_122
*334 FILLER_12_125
*335 FILLER_12_13
*336 FILLER_12_148
*337 FILLER_12_151
*338 FILLER_12_154
*339 FILLER_12_157
*340 FILLER_12_16
*341 FILLER_12_169
*342 FILLER_12_172
*343 FILLER_12_175
*344 FILLER_12_178
*345 FILLER_12_181
*346 FILLER_12_19
*347 FILLER_12_206
*348 FILLER_12_216
*349 FILLER_12_219
*350 FILLER_12_22
*351 FILLER_12_222
*352 FILLER_12_225
*353 FILLER_12_228
*354 FILLER_12_231
*355 FILLER_12_234
*356 FILLER_12_237
*357 FILLER_12_240
*358 FILLER_12_243
*359 FILLER_12_246
*360 FILLER_12_249
*361 FILLER_12_25
*362 FILLER_12_252
*363 FILLER_12_255
*364 FILLER_12_258
*365 FILLER_12_261
*366 FILLER_12_264
*367 FILLER_12_267
*368 FILLER_12_270
*369 FILLER_12_273
*370 FILLER_12_276
*371 FILLER_12_279
*372 FILLER_12_28
*373 FILLER_12_281
*374 FILLER_12_284
*375 FILLER_12_287
*376 FILLER_12_290
*377 FILLER_12_293
*378 FILLER_12_296
*379 FILLER_12_299
*380 FILLER_12_302
*381 FILLER_12_305
*382 FILLER_12_308
*383 FILLER_12_31
*384 FILLER_12_311
*385 FILLER_12_314
*386 FILLER_12_317
*387 FILLER_12_320
*388 FILLER_12_323
*389 FILLER_12_326
*390 FILLER_12_329
*391 FILLER_12_332
*392 FILLER_12_335
*393 FILLER_12_337
*394 FILLER_12_34
*395 FILLER_12_340
*396 FILLER_12_37
*397 FILLER_12_4
*398 FILLER_12_40
*399 FILLER_12_43
*400 FILLER_12_46
*401 FILLER_12_49
*402 FILLER_12_52
*403 FILLER_12_55
*404 FILLER_12_57
*405 FILLER_12_60
*406 FILLER_12_63
*407 FILLER_12_66
*408 FILLER_12_69
*409 FILLER_12_7
*410 FILLER_12_72
*411 FILLER_12_75
*412 FILLER_12_78
*413 FILLER_12_81
*414 FILLER_12_84
*415 FILLER_12_87
*416 FILLER_12_90
*417 FILLER_12_93
*418 FILLER_12_96
*419 FILLER_12_99
*420 FILLER_13_1
*421 FILLER_13_10
*422 FILLER_13_100
*423 FILLER_13_103
*424 FILLER_13_106
*425 FILLER_13_109
*426 FILLER_13_112
*427 FILLER_13_115
*428 FILLER_13_118
*429 FILLER_13_121
*430 FILLER_13_124
*431 FILLER_13_127
*432 FILLER_13_13
*433 FILLER_13_130
*434 FILLER_13_133
*435 FILLER_13_136
*436 FILLER_13_139
*437 FILLER_13_141
*438 FILLER_13_144
*439 FILLER_13_147
*440 FILLER_13_150
*441 FILLER_13_153
*442 FILLER_13_156
*443 FILLER_13_159
*444 FILLER_13_16
*445 FILLER_13_162
*446 FILLER_13_165
*447 FILLER_13_168
*448 FILLER_13_171
*449 FILLER_13_174
*450 FILLER_13_177
*451 FILLER_13_187
*452 FILLER_13_19
*453 FILLER_13_190
*454 FILLER_13_193
*455 FILLER_13_197
*456 FILLER_13_200
*457 FILLER_13_203
*458 FILLER_13_206
*459 FILLER_13_209
*460 FILLER_13_212
*461 FILLER_13_215
*462 FILLER_13_218
*463 FILLER_13_22
*464 FILLER_13_221
*465 FILLER_13_224
*466 FILLER_13_227
*467 FILLER_13_230
*468 FILLER_13_233
*469 FILLER_13_236
*470 FILLER_13_239
*471 FILLER_13_242
*472 FILLER_13_245
*473 FILLER_13_248
*474 FILLER_13_25
*475 FILLER_13_251
*476 FILLER_13_253
*477 FILLER_13_256
*478 FILLER_13_259
*479 FILLER_13_262
*480 FILLER_13_265
*481 FILLER_13_268
*482 FILLER_13_271
*483 FILLER_13_274
*484 FILLER_13_277
*485 FILLER_13_280
*486 FILLER_13_283
*487 FILLER_13_286
*488 FILLER_13_289
*489 FILLER_13_29
*490 FILLER_13_292
*491 FILLER_13_295
*492 FILLER_13_298
*493 FILLER_13_301
*494 FILLER_13_304
*495 FILLER_13_307
*496 FILLER_13_309
*497 FILLER_13_312
*498 FILLER_13_315
*499 FILLER_13_318
*500 FILLER_13_32
*501 FILLER_13_321
*502 FILLER_13_324
*503 FILLER_13_327
*504 FILLER_13_330
*505 FILLER_13_333
*506 FILLER_13_336
*507 FILLER_13_339
*508 FILLER_13_342
*509 FILLER_13_35
*510 FILLER_13_38
*511 FILLER_13_4
*512 FILLER_13_41
*513 FILLER_13_44
*514 FILLER_13_47
*515 FILLER_13_50
*516 FILLER_13_53
*517 FILLER_13_56
*518 FILLER_13_59
*519 FILLER_13_62
*520 FILLER_13_65
*521 FILLER_13_68
*522 FILLER_13_7
*523 FILLER_13_71
*524 FILLER_13_74
*525 FILLER_13_77
*526 FILLER_13_80
*527 FILLER_13_83
*528 FILLER_13_85
*529 FILLER_13_88
*530 FILLER_13_91
*531 FILLER_13_94
*532 FILLER_13_97
*533 FILLER_14_1
*534 FILLER_14_10
*535 FILLER_14_102
*536 FILLER_14_105
*537 FILLER_14_108
*538 FILLER_14_111
*539 FILLER_14_113
*540 FILLER_14_116
*541 FILLER_14_119
*542 FILLER_14_122
*543 FILLER_14_125
*544 FILLER_14_128
*545 FILLER_14_13
*546 FILLER_14_131
*547 FILLER_14_138
*548 FILLER_14_141
*549 FILLER_14_144
*550 FILLER_14_147
*551 FILLER_14_150
*552 FILLER_14_16
*553 FILLER_14_169
*554 FILLER_14_172
*555 FILLER_14_19
*556 FILLER_14_190
*557 FILLER_14_193
*558 FILLER_14_196
*559 FILLER_14_199
*560 FILLER_14_202
*561 FILLER_14_205
*562 FILLER_14_208
*563 FILLER_14_211
*564 FILLER_14_214
*565 FILLER_14_217
*566 FILLER_14_22
*567 FILLER_14_220
*568 FILLER_14_223
*569 FILLER_14_225
*570 FILLER_14_228
*571 FILLER_14_231
*572 FILLER_14_234
*573 FILLER_14_237
*574 FILLER_14_240
*575 FILLER_14_243
*576 FILLER_14_246
*577 FILLER_14_249
*578 FILLER_14_25
*579 FILLER_14_252
*580 FILLER_14_255
*581 FILLER_14_258
*582 FILLER_14_261
*583 FILLER_14_264
*584 FILLER_14_267
*585 FILLER_14_270
*586 FILLER_14_273
*587 FILLER_14_276
*588 FILLER_14_279
*589 FILLER_14_28
*590 FILLER_14_281
*591 FILLER_14_284
*592 FILLER_14_287
*593 FILLER_14_290
*594 FILLER_14_293
*595 FILLER_14_296
*596 FILLER_14_299
*597 FILLER_14_302
*598 FILLER_14_305
*599 FILLER_14_308
*600 FILLER_14_31
*601 FILLER_14_311
*602 FILLER_14_314
*603 FILLER_14_317
*604 FILLER_14_320
*605 FILLER_14_323
*606 FILLER_14_326
*607 FILLER_14_329
*608 FILLER_14_332
*609 FILLER_14_335
*610 FILLER_14_337
*611 FILLER_14_34
*612 FILLER_14_340
*613 FILLER_14_37
*614 FILLER_14_4
*615 FILLER_14_40
*616 FILLER_14_43
*617 FILLER_14_46
*618 FILLER_14_49
*619 FILLER_14_52
*620 FILLER_14_55
*621 FILLER_14_57
*622 FILLER_14_60
*623 FILLER_14_63
*624 FILLER_14_66
*625 FILLER_14_69
*626 FILLER_14_7
*627 FILLER_14_72
*628 FILLER_14_75
*629 FILLER_14_78
*630 FILLER_14_81
*631 FILLER_14_84
*632 FILLER_14_87
*633 FILLER_14_90
*634 FILLER_14_93
*635 FILLER_14_96
*636 FILLER_14_99
*637 FILLER_15_1
*638 FILLER_15_10
*639 FILLER_15_100
*640 FILLER_15_103
*641 FILLER_15_106
*642 FILLER_15_109
*643 FILLER_15_112
*644 FILLER_15_115
*645 FILLER_15_118
*646 FILLER_15_121
*647 FILLER_15_124
*648 FILLER_15_127
*649 FILLER_15_13
*650 FILLER_15_130
*651 FILLER_15_133
*652 FILLER_15_136
*653 FILLER_15_139
*654 FILLER_15_141
*655 FILLER_15_144
*656 FILLER_15_147
*657 FILLER_15_150
*658 FILLER_15_153
*659 FILLER_15_156
*660 FILLER_15_16
*661 FILLER_15_174
*662 FILLER_15_177
*663 FILLER_15_19
*664 FILLER_15_197
*665 FILLER_15_200
*666 FILLER_15_203
*667 FILLER_15_206
*668 FILLER_15_209
*669 FILLER_15_212
*670 FILLER_15_215
*671 FILLER_15_218
*672 FILLER_15_22
*673 FILLER_15_221
*674 FILLER_15_224
*675 FILLER_15_227
*676 FILLER_15_230
*677 FILLER_15_233
*678 FILLER_15_236
*679 FILLER_15_239
*680 FILLER_15_242
*681 FILLER_15_245
*682 FILLER_15_248
*683 FILLER_15_25
*684 FILLER_15_251
*685 FILLER_15_253
*686 FILLER_15_256
*687 FILLER_15_259
*688 FILLER_15_262
*689 FILLER_15_265
*690 FILLER_15_268
*691 FILLER_15_271
*692 FILLER_15_274
*693 FILLER_15_277
*694 FILLER_15_280
*695 FILLER_15_283
*696 FILLER_15_286
*697 FILLER_15_289
*698 FILLER_15_29
*699 FILLER_15_292
*700 FILLER_15_295
*701 FILLER_15_298
*702 FILLER_15_301
*703 FILLER_15_304
*704 FILLER_15_307
*705 FILLER_15_309
*706 FILLER_15_312
*707 FILLER_15_315
*708 FILLER_15_318
*709 FILLER_15_32
*710 FILLER_15_321
*711 FILLER_15_324
*712 FILLER_15_327
*713 FILLER_15_330
*714 FILLER_15_333
*715 FILLER_15_336
*716 FILLER_15_339
*717 FILLER_15_342
*718 FILLER_15_35
*719 FILLER_15_38
*720 FILLER_15_4
*721 FILLER_15_41
*722 FILLER_15_44
*723 FILLER_15_47
*724 FILLER_15_50
*725 FILLER_15_53
*726 FILLER_15_56
*727 FILLER_15_59
*728 FILLER_15_62
*729 FILLER_15_65
*730 FILLER_15_68
*731 FILLER_15_7
*732 FILLER_15_71
*733 FILLER_15_74
*734 FILLER_15_77
*735 FILLER_15_80
*736 FILLER_15_83
*737 FILLER_15_85
*738 FILLER_15_88
*739 FILLER_15_91
*740 FILLER_15_94
*741 FILLER_15_97
*742 FILLER_16_1
*743 FILLER_16_10
*744 FILLER_16_103
*745 FILLER_16_109
*746 FILLER_16_116
*747 FILLER_16_121
*748 FILLER_16_127
*749 FILLER_16_13
*750 FILLER_16_133
*751 FILLER_16_139
*752 FILLER_16_141
*753 FILLER_16_145
*754 FILLER_16_151
*755 FILLER_16_157
*756 FILLER_16_16
*757 FILLER_16_160
*758 FILLER_16_163
*759 FILLER_16_166
*760 FILLER_16_169
*761 FILLER_16_189
*762 FILLER_16_19
*763 FILLER_16_192
*764 FILLER_16_195
*765 FILLER_16_214
*766 FILLER_16_217
*767 FILLER_16_22
*768 FILLER_16_220
*769 FILLER_16_223
*770 FILLER_16_225
*771 FILLER_16_228
*772 FILLER_16_231
*773 FILLER_16_234
*774 FILLER_16_237
*775 FILLER_16_240
*776 FILLER_16_243
*777 FILLER_16_246
*778 FILLER_16_249
*779 FILLER_16_25
*780 FILLER_16_253
*781 FILLER_16_256
*782 FILLER_16_259
*783 FILLER_16_262
*784 FILLER_16_265
*785 FILLER_16_268
*786 FILLER_16_271
*787 FILLER_16_274
*788 FILLER_16_277
*789 FILLER_16_281
*790 FILLER_16_284
*791 FILLER_16_287
*792 FILLER_16_29
*793 FILLER_16_290
*794 FILLER_16_293
*795 FILLER_16_296
*796 FILLER_16_299
*797 FILLER_16_309
*798 FILLER_16_312
*799 FILLER_16_315
*800 FILLER_16_318
*801 FILLER_16_32
*802 FILLER_16_321
*803 FILLER_16_324
*804 FILLER_16_327
*805 FILLER_16_330
*806 FILLER_16_333
*807 FILLER_16_337
*808 FILLER_16_340
*809 FILLER_16_35
*810 FILLER_16_38
*811 FILLER_16_4
*812 FILLER_16_41
*813 FILLER_16_44
*814 FILLER_16_47
*815 FILLER_16_50
*816 FILLER_16_53
*817 FILLER_16_57
*818 FILLER_16_60
*819 FILLER_16_63
*820 FILLER_16_67
*821 FILLER_16_7
*822 FILLER_16_73
*823 FILLER_16_79
*824 FILLER_16_85
*825 FILLER_16_91
*826 FILLER_16_97
*827 FILLER_1_1
*828 FILLER_1_110
*829 FILLER_1_113
*830 FILLER_1_116
*831 FILLER_1_119
*832 FILLER_1_122
*833 FILLER_1_125
*834 FILLER_1_128
*835 FILLER_1_131
*836 FILLER_1_134
*837 FILLER_1_137
*838 FILLER_1_141
*839 FILLER_1_144
*840 FILLER_1_147
*841 FILLER_1_150
*842 FILLER_1_153
*843 FILLER_1_156
*844 FILLER_1_159
*845 FILLER_1_162
*846 FILLER_1_165
*847 FILLER_1_169
*848 FILLER_1_172
*849 FILLER_1_175
*850 FILLER_1_178
*851 FILLER_1_181
*852 FILLER_1_184
*853 FILLER_1_187
*854 FILLER_1_190
*855 FILLER_1_193
*856 FILLER_1_197
*857 FILLER_1_200
*858 FILLER_1_203
*859 FILLER_1_206
*860 FILLER_1_209
*861 FILLER_1_212
*862 FILLER_1_215
*863 FILLER_1_218
*864 FILLER_1_221
*865 FILLER_1_225
*866 FILLER_1_228
*867 FILLER_1_231
*868 FILLER_1_234
*869 FILLER_1_237
*870 FILLER_1_240
*871 FILLER_1_243
*872 FILLER_1_246
*873 FILLER_1_249
*874 FILLER_1_253
*875 FILLER_1_256
*876 FILLER_1_259
*877 FILLER_1_262
*878 FILLER_1_265
*879 FILLER_1_268
*880 FILLER_1_271
*881 FILLER_1_274
*882 FILLER_1_277
*883 FILLER_1_281
*884 FILLER_1_284
*885 FILLER_1_287
*886 FILLER_1_29
*887 FILLER_1_290
*888 FILLER_1_293
*889 FILLER_1_296
*890 FILLER_1_299
*891 FILLER_1_302
*892 FILLER_1_305
*893 FILLER_1_309
*894 FILLER_1_312
*895 FILLER_1_315
*896 FILLER_1_318
*897 FILLER_1_32
*898 FILLER_1_321
*899 FILLER_1_324
*900 FILLER_1_327
*901 FILLER_1_330
*902 FILLER_1_333
*903 FILLER_1_337
*904 FILLER_1_340
*905 FILLER_1_35
*906 FILLER_1_4
*907 FILLER_1_45
*908 FILLER_1_48
*909 FILLER_1_51
*910 FILLER_1_54
*911 FILLER_1_57
*912 FILLER_1_7
*913 FILLER_1_72
*914 FILLER_1_75
*915 FILLER_1_78
*916 FILLER_1_81
*917 FILLER_1_85
*918 FILLER_1_88
*919 FILLER_1_91
*920 FILLER_1_94
*921 FILLER_2_1
*922 FILLER_2_104
*923 FILLER_2_107
*924 FILLER_2_110
*925 FILLER_2_113
*926 FILLER_2_116
*927 FILLER_2_119
*928 FILLER_2_122
*929 FILLER_2_125
*930 FILLER_2_128
*931 FILLER_2_131
*932 FILLER_2_134
*933 FILLER_2_137
*934 FILLER_2_140
*935 FILLER_2_143
*936 FILLER_2_146
*937 FILLER_2_149
*938 FILLER_2_152
*939 FILLER_2_155
*940 FILLER_2_158
*941 FILLER_2_161
*942 FILLER_2_164
*943 FILLER_2_167
*944 FILLER_2_169
*945 FILLER_2_172
*946 FILLER_2_175
*947 FILLER_2_178
*948 FILLER_2_181
*949 FILLER_2_184
*950 FILLER_2_187
*951 FILLER_2_190
*952 FILLER_2_193
*953 FILLER_2_196
*954 FILLER_2_199
*955 FILLER_2_202
*956 FILLER_2_205
*957 FILLER_2_208
*958 FILLER_2_211
*959 FILLER_2_214
*960 FILLER_2_217
*961 FILLER_2_220
*962 FILLER_2_223
*963 FILLER_2_225
*964 FILLER_2_228
*965 FILLER_2_231
*966 FILLER_2_234
*967 FILLER_2_237
*968 FILLER_2_240
*969 FILLER_2_243
*970 FILLER_2_246
*971 FILLER_2_249
*972 FILLER_2_252
*973 FILLER_2_255
*974 FILLER_2_258
*975 FILLER_2_26
*976 FILLER_2_261
*977 FILLER_2_264
*978 FILLER_2_267
*979 FILLER_2_270
*980 FILLER_2_273
*981 FILLER_2_276
*982 FILLER_2_279
*983 FILLER_2_281
*984 FILLER_2_284
*985 FILLER_2_287
*986 FILLER_2_29
*987 FILLER_2_290
*988 FILLER_2_293
*989 FILLER_2_296
*990 FILLER_2_299
*991 FILLER_2_302
*992 FILLER_2_305
*993 FILLER_2_308
*994 FILLER_2_311
*995 FILLER_2_314
*996 FILLER_2_317
*997 FILLER_2_32
*998 FILLER_2_320
*999 FILLER_2_323
*1000 FILLER_2_326
*1001 FILLER_2_329
*1002 FILLER_2_332
*1003 FILLER_2_335
*1004 FILLER_2_337
*1005 FILLER_2_340
*1006 FILLER_2_35
*1007 FILLER_2_38
*1008 FILLER_2_41
*1009 FILLER_2_48
*1010 FILLER_2_51
*1011 FILLER_2_54
*1012 FILLER_2_57
*1013 FILLER_2_65
*1014 FILLER_2_68
*1015 FILLER_2_71
*1016 FILLER_2_74
*1017 FILLER_2_77
*1018 FILLER_2_80
*1019 FILLER_2_83
*1020 FILLER_2_86
*1021 FILLER_2_89
*1022 FILLER_2_92
*1023 FILLER_2_95
*1024 FILLER_3_1
*1025 FILLER_3_100
*1026 FILLER_3_103
*1027 FILLER_3_106
*1028 FILLER_3_109
*1029 FILLER_3_112
*1030 FILLER_3_115
*1031 FILLER_3_118
*1032 FILLER_3_12
*1033 FILLER_3_121
*1034 FILLER_3_124
*1035 FILLER_3_127
*1036 FILLER_3_130
*1037 FILLER_3_133
*1038 FILLER_3_136
*1039 FILLER_3_139
*1040 FILLER_3_141
*1041 FILLER_3_144
*1042 FILLER_3_147
*1043 FILLER_3_15
*1044 FILLER_3_150
*1045 FILLER_3_153
*1046 FILLER_3_156
*1047 FILLER_3_159
*1048 FILLER_3_162
*1049 FILLER_3_165
*1050 FILLER_3_168
*1051 FILLER_3_171
*1052 FILLER_3_174
*1053 FILLER_3_177
*1054 FILLER_3_18
*1055 FILLER_3_180
*1056 FILLER_3_183
*1057 FILLER_3_186
*1058 FILLER_3_189
*1059 FILLER_3_192
*1060 FILLER_3_195
*1061 FILLER_3_197
*1062 FILLER_3_200
*1063 FILLER_3_203
*1064 FILLER_3_206
*1065 FILLER_3_209
*1066 FILLER_3_21
*1067 FILLER_3_212
*1068 FILLER_3_215
*1069 FILLER_3_218
*1070 FILLER_3_221
*1071 FILLER_3_224
*1072 FILLER_3_227
*1073 FILLER_3_230
*1074 FILLER_3_233
*1075 FILLER_3_236
*1076 FILLER_3_239
*1077 FILLER_3_24
*1078 FILLER_3_242
*1079 FILLER_3_245
*1080 FILLER_3_248
*1081 FILLER_3_251
*1082 FILLER_3_253
*1083 FILLER_3_256
*1084 FILLER_3_259
*1085 FILLER_3_262
*1086 FILLER_3_265
*1087 FILLER_3_268
*1088 FILLER_3_27
*1089 FILLER_3_271
*1090 FILLER_3_274
*1091 FILLER_3_277
*1092 FILLER_3_280
*1093 FILLER_3_283
*1094 FILLER_3_286
*1095 FILLER_3_289
*1096 FILLER_3_29
*1097 FILLER_3_292
*1098 FILLER_3_295
*1099 FILLER_3_298
*1100 FILLER_3_301
*1101 FILLER_3_304
*1102 FILLER_3_307
*1103 FILLER_3_309
*1104 FILLER_3_312
*1105 FILLER_3_315
*1106 FILLER_3_318
*1107 FILLER_3_32
*1108 FILLER_3_321
*1109 FILLER_3_324
*1110 FILLER_3_327
*1111 FILLER_3_330
*1112 FILLER_3_333
*1113 FILLER_3_336
*1114 FILLER_3_339
*1115 FILLER_3_342
*1116 FILLER_3_42
*1117 FILLER_3_45
*1118 FILLER_3_48
*1119 FILLER_3_51
*1120 FILLER_3_54
*1121 FILLER_3_57
*1122 FILLER_3_60
*1123 FILLER_3_63
*1124 FILLER_3_66
*1125 FILLER_3_69
*1126 FILLER_3_72
*1127 FILLER_3_75
*1128 FILLER_3_78
*1129 FILLER_3_81
*1130 FILLER_3_85
*1131 FILLER_3_88
*1132 FILLER_3_91
*1133 FILLER_3_94
*1134 FILLER_3_97
*1135 FILLER_4_1
*1136 FILLER_4_10
*1137 FILLER_4_100
*1138 FILLER_4_103
*1139 FILLER_4_106
*1140 FILLER_4_109
*1141 FILLER_4_13
*1142 FILLER_4_130
*1143 FILLER_4_133
*1144 FILLER_4_136
*1145 FILLER_4_139
*1146 FILLER_4_142
*1147 FILLER_4_145
*1148 FILLER_4_148
*1149 FILLER_4_151
*1150 FILLER_4_154
*1151 FILLER_4_157
*1152 FILLER_4_16
*1153 FILLER_4_160
*1154 FILLER_4_163
*1155 FILLER_4_166
*1156 FILLER_4_169
*1157 FILLER_4_172
*1158 FILLER_4_175
*1159 FILLER_4_178
*1160 FILLER_4_181
*1161 FILLER_4_184
*1162 FILLER_4_187
*1163 FILLER_4_19
*1164 FILLER_4_190
*1165 FILLER_4_193
*1166 FILLER_4_196
*1167 FILLER_4_199
*1168 FILLER_4_202
*1169 FILLER_4_205
*1170 FILLER_4_208
*1171 FILLER_4_211
*1172 FILLER_4_214
*1173 FILLER_4_217
*1174 FILLER_4_22
*1175 FILLER_4_220
*1176 FILLER_4_223
*1177 FILLER_4_225
*1178 FILLER_4_228
*1179 FILLER_4_231
*1180 FILLER_4_234
*1181 FILLER_4_237
*1182 FILLER_4_240
*1183 FILLER_4_243
*1184 FILLER_4_246
*1185 FILLER_4_249
*1186 FILLER_4_25
*1187 FILLER_4_252
*1188 FILLER_4_255
*1189 FILLER_4_258
*1190 FILLER_4_261
*1191 FILLER_4_264
*1192 FILLER_4_267
*1193 FILLER_4_270
*1194 FILLER_4_273
*1195 FILLER_4_276
*1196 FILLER_4_279
*1197 FILLER_4_28
*1198 FILLER_4_281
*1199 FILLER_4_284
*1200 FILLER_4_287
*1201 FILLER_4_290
*1202 FILLER_4_293
*1203 FILLER_4_296
*1204 FILLER_4_299
*1205 FILLER_4_302
*1206 FILLER_4_305
*1207 FILLER_4_308
*1208 FILLER_4_31
*1209 FILLER_4_311
*1210 FILLER_4_314
*1211 FILLER_4_317
*1212 FILLER_4_320
*1213 FILLER_4_323
*1214 FILLER_4_326
*1215 FILLER_4_329
*1216 FILLER_4_332
*1217 FILLER_4_335
*1218 FILLER_4_337
*1219 FILLER_4_34
*1220 FILLER_4_340
*1221 FILLER_4_37
*1222 FILLER_4_4
*1223 FILLER_4_40
*1224 FILLER_4_43
*1225 FILLER_4_46
*1226 FILLER_4_49
*1227 FILLER_4_52
*1228 FILLER_4_55
*1229 FILLER_4_67
*1230 FILLER_4_7
*1231 FILLER_4_70
*1232 FILLER_4_73
*1233 FILLER_4_76
*1234 FILLER_4_79
*1235 FILLER_4_82
*1236 FILLER_4_85
*1237 FILLER_4_88
*1238 FILLER_4_91
*1239 FILLER_4_94
*1240 FILLER_4_97
*1241 FILLER_5_1
*1242 FILLER_5_10
*1243 FILLER_5_100
*1244 FILLER_5_103
*1245 FILLER_5_106
*1246 FILLER_5_109
*1247 FILLER_5_112
*1248 FILLER_5_115
*1249 FILLER_5_118
*1250 FILLER_5_121
*1251 FILLER_5_124
*1252 FILLER_5_127
*1253 FILLER_5_13
*1254 FILLER_5_130
*1255 FILLER_5_133
*1256 FILLER_5_136
*1257 FILLER_5_139
*1258 FILLER_5_141
*1259 FILLER_5_144
*1260 FILLER_5_147
*1261 FILLER_5_150
*1262 FILLER_5_153
*1263 FILLER_5_156
*1264 FILLER_5_159
*1265 FILLER_5_16
*1266 FILLER_5_162
*1267 FILLER_5_165
*1268 FILLER_5_168
*1269 FILLER_5_171
*1270 FILLER_5_174
*1271 FILLER_5_177
*1272 FILLER_5_180
*1273 FILLER_5_183
*1274 FILLER_5_186
*1275 FILLER_5_189
*1276 FILLER_5_19
*1277 FILLER_5_192
*1278 FILLER_5_195
*1279 FILLER_5_197
*1280 FILLER_5_200
*1281 FILLER_5_203
*1282 FILLER_5_206
*1283 FILLER_5_209
*1284 FILLER_5_212
*1285 FILLER_5_215
*1286 FILLER_5_218
*1287 FILLER_5_22
*1288 FILLER_5_221
*1289 FILLER_5_224
*1290 FILLER_5_227
*1291 FILLER_5_230
*1292 FILLER_5_233
*1293 FILLER_5_236
*1294 FILLER_5_239
*1295 FILLER_5_242
*1296 FILLER_5_245
*1297 FILLER_5_248
*1298 FILLER_5_25
*1299 FILLER_5_251
*1300 FILLER_5_253
*1301 FILLER_5_256
*1302 FILLER_5_259
*1303 FILLER_5_262
*1304 FILLER_5_265
*1305 FILLER_5_268
*1306 FILLER_5_271
*1307 FILLER_5_274
*1308 FILLER_5_277
*1309 FILLER_5_280
*1310 FILLER_5_283
*1311 FILLER_5_286
*1312 FILLER_5_289
*1313 FILLER_5_29
*1314 FILLER_5_292
*1315 FILLER_5_295
*1316 FILLER_5_298
*1317 FILLER_5_301
*1318 FILLER_5_304
*1319 FILLER_5_307
*1320 FILLER_5_309
*1321 FILLER_5_312
*1322 FILLER_5_315
*1323 FILLER_5_318
*1324 FILLER_5_32
*1325 FILLER_5_321
*1326 FILLER_5_324
*1327 FILLER_5_327
*1328 FILLER_5_330
*1329 FILLER_5_333
*1330 FILLER_5_336
*1331 FILLER_5_339
*1332 FILLER_5_342
*1333 FILLER_5_35
*1334 FILLER_5_38
*1335 FILLER_5_4
*1336 FILLER_5_41
*1337 FILLER_5_44
*1338 FILLER_5_47
*1339 FILLER_5_50
*1340 FILLER_5_53
*1341 FILLER_5_56
*1342 FILLER_5_59
*1343 FILLER_5_62
*1344 FILLER_5_65
*1345 FILLER_5_68
*1346 FILLER_5_7
*1347 FILLER_5_71
*1348 FILLER_5_74
*1349 FILLER_5_77
*1350 FILLER_5_80
*1351 FILLER_5_83
*1352 FILLER_5_85
*1353 FILLER_5_88
*1354 FILLER_5_91
*1355 FILLER_5_94
*1356 FILLER_5_97
*1357 FILLER_6_1
*1358 FILLER_6_10
*1359 FILLER_6_102
*1360 FILLER_6_105
*1361 FILLER_6_108
*1362 FILLER_6_111
*1363 FILLER_6_113
*1364 FILLER_6_116
*1365 FILLER_6_119
*1366 FILLER_6_122
*1367 FILLER_6_125
*1368 FILLER_6_128
*1369 FILLER_6_13
*1370 FILLER_6_131
*1371 FILLER_6_134
*1372 FILLER_6_137
*1373 FILLER_6_140
*1374 FILLER_6_143
*1375 FILLER_6_146
*1376 FILLER_6_149
*1377 FILLER_6_152
*1378 FILLER_6_155
*1379 FILLER_6_158
*1380 FILLER_6_161
*1381 FILLER_6_164
*1382 FILLER_6_167
*1383 FILLER_6_169
*1384 FILLER_6_172
*1385 FILLER_6_175
*1386 FILLER_6_178
*1387 FILLER_6_181
*1388 FILLER_6_184
*1389 FILLER_6_187
*1390 FILLER_6_190
*1391 FILLER_6_193
*1392 FILLER_6_196
*1393 FILLER_6_199
*1394 FILLER_6_202
*1395 FILLER_6_205
*1396 FILLER_6_208
*1397 FILLER_6_211
*1398 FILLER_6_214
*1399 FILLER_6_217
*1400 FILLER_6_220
*1401 FILLER_6_223
*1402 FILLER_6_225
*1403 FILLER_6_228
*1404 FILLER_6_231
*1405 FILLER_6_234
*1406 FILLER_6_237
*1407 FILLER_6_240
*1408 FILLER_6_243
*1409 FILLER_6_246
*1410 FILLER_6_249
*1411 FILLER_6_252
*1412 FILLER_6_255
*1413 FILLER_6_258
*1414 FILLER_6_261
*1415 FILLER_6_264
*1416 FILLER_6_267
*1417 FILLER_6_270
*1418 FILLER_6_273
*1419 FILLER_6_276
*1420 FILLER_6_279
*1421 FILLER_6_281
*1422 FILLER_6_284
*1423 FILLER_6_287
*1424 FILLER_6_290
*1425 FILLER_6_293
*1426 FILLER_6_296
*1427 FILLER_6_299
*1428 FILLER_6_302
*1429 FILLER_6_305
*1430 FILLER_6_308
*1431 FILLER_6_311
*1432 FILLER_6_314
*1433 FILLER_6_317
*1434 FILLER_6_320
*1435 FILLER_6_323
*1436 FILLER_6_326
*1437 FILLER_6_329
*1438 FILLER_6_33
*1439 FILLER_6_332
*1440 FILLER_6_335
*1441 FILLER_6_337
*1442 FILLER_6_340
*1443 FILLER_6_36
*1444 FILLER_6_39
*1445 FILLER_6_4
*1446 FILLER_6_42
*1447 FILLER_6_45
*1448 FILLER_6_48
*1449 FILLER_6_51
*1450 FILLER_6_54
*1451 FILLER_6_57
*1452 FILLER_6_60
*1453 FILLER_6_63
*1454 FILLER_6_66
*1455 FILLER_6_69
*1456 FILLER_6_7
*1457 FILLER_6_72
*1458 FILLER_6_75
*1459 FILLER_6_78
*1460 FILLER_6_81
*1461 FILLER_6_84
*1462 FILLER_6_87
*1463 FILLER_6_90
*1464 FILLER_6_93
*1465 FILLER_6_96
*1466 FILLER_6_99
*1467 FILLER_7_1
*1468 FILLER_7_10
*1469 FILLER_7_100
*1470 FILLER_7_103
*1471 FILLER_7_106
*1472 FILLER_7_109
*1473 FILLER_7_112
*1474 FILLER_7_115
*1475 FILLER_7_118
*1476 FILLER_7_121
*1477 FILLER_7_124
*1478 FILLER_7_127
*1479 FILLER_7_13
*1480 FILLER_7_130
*1481 FILLER_7_133
*1482 FILLER_7_136
*1483 FILLER_7_139
*1484 FILLER_7_141
*1485 FILLER_7_144
*1486 FILLER_7_147
*1487 FILLER_7_150
*1488 FILLER_7_153
*1489 FILLER_7_16
*1490 FILLER_7_160
*1491 FILLER_7_163
*1492 FILLER_7_166
*1493 FILLER_7_169
*1494 FILLER_7_172
*1495 FILLER_7_175
*1496 FILLER_7_178
*1497 FILLER_7_181
*1498 FILLER_7_184
*1499 FILLER_7_187
*1500 FILLER_7_19
*1501 FILLER_7_190
*1502 FILLER_7_197
*1503 FILLER_7_200
*1504 FILLER_7_203
*1505 FILLER_7_206
*1506 FILLER_7_209
*1507 FILLER_7_212
*1508 FILLER_7_215
*1509 FILLER_7_218
*1510 FILLER_7_22
*1511 FILLER_7_221
*1512 FILLER_7_224
*1513 FILLER_7_227
*1514 FILLER_7_230
*1515 FILLER_7_233
*1516 FILLER_7_236
*1517 FILLER_7_239
*1518 FILLER_7_242
*1519 FILLER_7_245
*1520 FILLER_7_248
*1521 FILLER_7_25
*1522 FILLER_7_251
*1523 FILLER_7_253
*1524 FILLER_7_256
*1525 FILLER_7_259
*1526 FILLER_7_262
*1527 FILLER_7_265
*1528 FILLER_7_268
*1529 FILLER_7_271
*1530 FILLER_7_274
*1531 FILLER_7_277
*1532 FILLER_7_280
*1533 FILLER_7_283
*1534 FILLER_7_286
*1535 FILLER_7_289
*1536 FILLER_7_29
*1537 FILLER_7_292
*1538 FILLER_7_295
*1539 FILLER_7_298
*1540 FILLER_7_301
*1541 FILLER_7_304
*1542 FILLER_7_307
*1543 FILLER_7_309
*1544 FILLER_7_312
*1545 FILLER_7_315
*1546 FILLER_7_318
*1547 FILLER_7_32
*1548 FILLER_7_321
*1549 FILLER_7_324
*1550 FILLER_7_327
*1551 FILLER_7_330
*1552 FILLER_7_333
*1553 FILLER_7_336
*1554 FILLER_7_339
*1555 FILLER_7_342
*1556 FILLER_7_35
*1557 FILLER_7_38
*1558 FILLER_7_4
*1559 FILLER_7_41
*1560 FILLER_7_44
*1561 FILLER_7_47
*1562 FILLER_7_50
*1563 FILLER_7_53
*1564 FILLER_7_56
*1565 FILLER_7_59
*1566 FILLER_7_62
*1567 FILLER_7_65
*1568 FILLER_7_68
*1569 FILLER_7_7
*1570 FILLER_7_71
*1571 FILLER_7_74
*1572 FILLER_7_77
*1573 FILLER_7_80
*1574 FILLER_7_83
*1575 FILLER_7_85
*1576 FILLER_7_88
*1577 FILLER_7_91
*1578 FILLER_7_94
*1579 FILLER_7_97
*1580 FILLER_8_1
*1581 FILLER_8_10
*1582 FILLER_8_102
*1583 FILLER_8_105
*1584 FILLER_8_108
*1585 FILLER_8_111
*1586 FILLER_8_113
*1587 FILLER_8_116
*1588 FILLER_8_119
*1589 FILLER_8_13
*1590 FILLER_8_146
*1591 FILLER_8_149
*1592 FILLER_8_152
*1593 FILLER_8_155
*1594 FILLER_8_158
*1595 FILLER_8_16
*1596 FILLER_8_161
*1597 FILLER_8_164
*1598 FILLER_8_167
*1599 FILLER_8_169
*1600 FILLER_8_172
*1601 FILLER_8_180
*1602 FILLER_8_183
*1603 FILLER_8_19
*1604 FILLER_8_200
*1605 FILLER_8_203
*1606 FILLER_8_207
*1607 FILLER_8_210
*1608 FILLER_8_213
*1609 FILLER_8_216
*1610 FILLER_8_219
*1611 FILLER_8_22
*1612 FILLER_8_222
*1613 FILLER_8_225
*1614 FILLER_8_228
*1615 FILLER_8_231
*1616 FILLER_8_234
*1617 FILLER_8_237
*1618 FILLER_8_240
*1619 FILLER_8_243
*1620 FILLER_8_246
*1621 FILLER_8_249
*1622 FILLER_8_25
*1623 FILLER_8_252
*1624 FILLER_8_255
*1625 FILLER_8_258
*1626 FILLER_8_261
*1627 FILLER_8_264