*SPEF "ieee 1481-1999"
*DESIGN "tt_um_rebelmike_asic_odyssey"
*DATE "22:10:41 Thursday April 16, 2026"
*VENDOR "The OpenROAD Project"
*PROGRAM "OpenROAD"
*VERSION "dcf36133a369abc8f3c5e5738cd4d82e4903c0e0"
*DESIGN_FLOW "NAME_SCOPE LOCAL" "PIN_CAP NONE"
*DIVIDER /
*DELIMITER :
*BUS_DELIMITER []
*T_UNIT 1 NS
*C_UNIT 1 PF
*R_UNIT 1 OHM
*L_UNIT 1 HENRY

*NAME_MAP
*3 clk
*4 ena
*5 rst_n
*6 ui_in[0]
*7 ui_in[1]
*8 ui_in[2]
*9 ui_in[3]
*10 ui_in[4]
*11 ui_in[5]
*12 ui_in[6]
*13 ui_in[7]
*14 uio_in[0]
*15 uio_in[1]
*16 uio_in[2]
*17 uio_in[3]
*18 uio_in[4]
*19 uio_in[5]
*20 uio_in[6]
*21 uio_in[7]
*22 net
*23 net26
*24 net27
*25 net28
*26 net29
*27 net30
*28 net31
*29 net32
*30 net33
*31 net34
*32 net35
*33 net36
*34 net37
*35 net38
*36 net39
*37 net40
*38 uo_out[0]
*39 uo_out[1]
*40 uo_out[2]
*41 uo_out[3]
*42 uo_out[4]
*43 uo_out[5]
*44 uo_out[6]
*45 uo_out[7]
*46 _000_
*47 _001_
*48 _002_
*49 _003_
*50 _004_
*51 _005_
*52 _006_
*53 _007_
*54 _008_
*55 _009_
*56 _010_
*57 _011_
*58 _012_
*59 _013_
*60 _014_
*61 _015_
*62 _016_
*63 _017_
*64 _018_
*65 _019_
*66 _020_
*67 _021_
*68 _022_
*69 _023_
*70 _024_
*71 _025_
*72 _026_
*73 _027_
*74 _028_
*75 _029_
*76 _030_
*77 _031_
*78 _032_
*79 _033_
*80 _034_
*81 _035_
*82 _036_
*83 _037_
*84 _038_
*85 _039_
*86 _040_
*87 _041_
*88 _042_
*89 _043_
*90 _044_
*91 _045_
*92 _046_
*93 _047_
*94 _048_
*95 _049_
*96 _050_
*97 _051_
*98 _052_
*99 _053_
*100 _054_
*101 _055_
*102 _056_
*103 _057_
*104 _058_
*105 _059_
*106 _060_
*107 _061_
*108 _062_
*109 _063_
*110 _064_
*111 _065_
*112 _066_
*113 _067_
*114 _068_
*115 _069_
*116 _070_
*117 _071_
*118 _072_
*119 _073_
*120 _074_
*121 _075_
*122 _076_
*123 _077_
*124 _078_
*125 _079_
*126 _080_
*127 _081_
*128 _082_
*129 _083_
*130 _084_
*131 _085_
*132 _086_
*133 _087_
*134 _088_
*135 _089_
*136 _090_
*137 _091_
*138 _092_
*139 _093_
*140 _094_
*141 _095_
*142 _096_
*143 _097_
*144 _098_
*145 _099_
*146 _100_
*147 _101_
*148 _102_
*149 _103_
*150 _104_
*151 _105_
*152 _106_
*153 _107_
*154 _108_
*155 _109_
*156 _110_
*157 _111_
*158 _112_
*159 _113_
*160 _114_
*161 _115_
*162 _116_
*163 _117_
*164 _118_
*165 _119_
*166 _120_
*167 _121_
*168 _122_
*169 _123_
*170 _124_
*171 _125_
*172 _126_
*173 _127_
*174 _128_
*175 _129_
*176 _130_
*177 _131_
*178 _132_
*179 _133_
*180 _134_
*181 _135_
*182 _136_
*183 _137_
*184 _138_
*185 _139_
*186 _140_
*187 _141_
*188 _142_
*189 _143_
*190 _144_
*191 _145_
*192 _146_
*193 _147_
*194 _148_
*195 _149_
*196 _150_
*197 _151_
*198 _152_
*199 _153_
*200 _154_
*201 _155_
*202 _156_
*203 _157_
*204 _158_
*205 _159_
*206 _160_
*207 _161_
*208 _162_
*209 _163_
*210 _164_
*211 _165_
*212 _166_
*213 _167_
*214 _168_
*215 _169_
*216 _170_
*217 _171_
*218 _172_
*219 _173_
*220 _174_
*221 _175_
*222 _176_
*223 _177_
*224 _178_
*225 _179_
*226 _180_
*227 _181_
*228 _182_
*229 _183_
*230 _184_
*231 _185_
*232 _186_
*233 _187_
*234 _188_
*235 _189_
*236 _190_
*237 _191_
*238 _192_
*239 _193_
*240 _194_
*241 _195_
*242 _196_
*243 _197_
*244 _198_
*245 _199_
*246 _200_
*247 _201_
*248 _202_
*249 _203_
*250 _204_
*251 _205_
*252 _206_
*253 _207_
*254 _208_
*255 _209_
*256 _210_
*257 _211_
*258 _212_
*259 _213_
*260 _214_
*261 _215_
*262 _216_
*263 _217_
*264 _218_
*265 _219_
*266 _220_
*267 _221_
*268 _222_
*269 _223_
*270 _224_
*271 _225_
*272 _226_
*273 _227_
*274 _228_
*275 _229_
*276 _230_
*277 _231_
*278 _232_
*279 _233_
*280 _234_
*281 _235_
*282 _236_
*283 _237_
*284 _238_
*285 _239_
*286 _240_
*287 _241_
*288 _242_
*289 _243_
*290 _244_
*291 _245_
*292 _246_
*293 _247_
*294 _248_
*295 _249_
*296 _250_
*297 _251_
*298 _252_
*299 _253_
*300 _254_
*301 _255_
*302 _256_
*303 _257_
*304 _258_
*305 _259_
*306 _260_
*307 _261_
*308 _262_
*309 _263_
*310 _264_
*311 _265_
*312 _266_
*313 _267_
*314 _268_
*315 _269_
*316 _270_
*317 _271_
*318 _272_
*319 _273_
*320 _274_
*321 _275_
*322 _276_
*323 _277_
*324 _278_
*325 _279_
*326 _280_
*327 _281_
*328 _282_
*329 _283_
*330 _284_
*331 _285_
*332 _286_
*333 _287_
*334 _288_
*335 _289_
*336 _290_
*337 _291_
*338 adj_y\[0\]
*339 adj_y\[1\]
*340 adj_y\[2\]
*341 adj_y\[3\]
*342 adj_y\[4\]
*343 adj_y\[5\]
*344 cell_clk
*345 cell_state\[0\]
*346 cell_state\[10\]
*347 cell_state\[11\]
*348 cell_state\[12\]
*349 cell_state\[13\]
*350 cell_state\[14\]
*351 cell_state\[15\]
*352 cell_state\[1\]
*353 cell_state\[2\]
*354 cell_state\[3\]
*355 cell_state\[4\]
*356 cell_state\[5\]
*357 cell_state\[6\]
*358 cell_state\[7\]
*359 cell_state\[8\]
*360 cell_state\[9\]
*361 clk_regs
*362 clknet_0_clk
*363 clknet_0_clk_regs
*364 clknet_1_0__leaf_clk
*365 clknet_2_0__leaf_clk_regs
*366 clknet_2_1__leaf_clk_regs
*367 clknet_2_2__leaf_clk_regs
*368 clknet_2_3__leaf_clk_regs
*369 counter\[0\]
*370 counter\[1\]
*371 counter\[2\]
*372 counter\[3\]
*373 counter\[4\]
*374 counter\[5\]
*375 counter\[6\]
*376 counter\[7\]
*377 counter\[8\]
*378 counter\[9\]
*379 hsync
*380 hsync_r
*381 lfsr\[0\]
*382 lfsr\[10\]
*383 lfsr\[11\]
*384 lfsr\[12\]
*385 lfsr\[13\]
*386 lfsr\[14\]
*387 lfsr\[15\]
*388 lfsr\[16\]
*389 lfsr\[17\]
*390 lfsr\[18\]
*391 lfsr\[19\]
*392 lfsr\[1\]
*393 lfsr\[2\]
*394 lfsr\[3\]
*395 lfsr\[4\]
*396 lfsr\[5\]
*397 lfsr\[6\]
*398 lfsr\[7\]
*399 lfsr\[8\]
*400 lfsr\[9\]
*401 net1
*402 net10
*403 net11
*404 net12
*405 net13
*406 net14
*407 net15
*408 net16
*409 net17
*410 net18
*411 net19
*412 net2
*413 net20
*414 net21
*415 net22
*416 net23
*417 net24
*418 net25
*419 net3
*420 net4
*421 net41
*422 net42
*423 net43
*424 net5
*425 net6
*426 net7
*427 net8
*428 net9
*429 rom_q\[0\]
*430 rom_q\[1\]
*431 rom_q\[2\]
*432 rom_q\[3\]
*433 timing\.count\[0\]
*434 timing\.count\[10\]
*435 timing\.count\[11\]
*436 timing\.count\[12\]
*437 timing\.count\[13\]
*438 timing\.count\[14\]
*439 timing\.count\[15\]
*440 timing\.count\[16\]
*441 timing\.count\[17\]
*442 timing\.count\[18\]
*443 timing\.count\[19\]
*444 timing\.count\[1\]
*445 timing\.count\[2\]
*446 timing\.count\[3\]
*447 timing\.count\[4\]
*448 timing\.count\[5\]
*449 timing\.count\[6\]
*450 timing\.count\[7\]
*451 timing\.count\[8\]
*452 timing\.count\[9\]
*453 timing\.count_max
*454 timing\.count_rst_n
*455 timing\.vsync
*456 vsync_r
*457 was_cell
*458 was_tt_sq
*459 ANTENNA_1
*460 ANTENNA_2
*461 FILLER_0_21
*462 FILLER_10_1
*463 FILLER_10_113
*464 FILLER_10_116
*465 FILLER_10_12
*466 FILLER_10_123
*467 FILLER_10_126
*468 FILLER_10_129
*469 FILLER_10_132
*470 FILLER_10_135
*471 FILLER_10_146
*472 FILLER_10_149
*473 FILLER_10_152
*474 FILLER_10_169
*475 FILLER_10_202
*476 FILLER_10_205
*477 FILLER_10_230
*478 FILLER_10_239
*479 FILLER_10_253
*480 FILLER_10_276
*481 FILLER_10_279
*482 FILLER_10_30
*483 FILLER_10_315
*484 FILLER_10_318
*485 FILLER_10_321
*486 FILLER_10_324
*487 FILLER_10_327
*488 FILLER_10_330
*489 FILLER_10_333
*490 FILLER_10_337
*491 FILLER_10_340
*492 FILLER_10_35
*493 FILLER_10_38
*494 FILLER_10_4
*495 FILLER_10_41
*496 FILLER_10_44
*497 FILLER_10_54
*498 FILLER_10_57
*499 FILLER_10_60
*500 FILLER_10_63
*501 FILLER_10_66
*502 FILLER_10_69
*503 FILLER_10_76
*504 FILLER_10_83
*505 FILLER_10_86
*506 FILLER_10_89
*507 FILLER_11_1
*508 FILLER_11_122
*509 FILLER_11_125
*510 FILLER_11_141
*511 FILLER_11_156
*512 FILLER_11_175
*513 FILLER_11_18
*514 FILLER_11_206
*515 FILLER_11_21
*516 FILLER_11_232
*517 FILLER_11_24
*518 FILLER_11_244
*519 FILLER_11_247
*520 FILLER_11_250
*521 FILLER_11_27
*522 FILLER_11_274
*523 FILLER_11_277
*524 FILLER_11_280
*525 FILLER_11_283
*526 FILLER_11_300
*527 FILLER_11_303
*528 FILLER_11_306
*529 FILLER_11_309
*530 FILLER_11_312
*531 FILLER_11_315
*532 FILLER_11_318
*533 FILLER_11_321
*534 FILLER_11_324
*535 FILLER_11_327
*536 FILLER_11_330
*537 FILLER_11_333
*538 FILLER_11_336
*539 FILLER_11_339
*540 FILLER_11_342
*541 FILLER_11_38
*542 FILLER_11_4
*543 FILLER_11_41
*544 FILLER_11_44
*545 FILLER_11_47
*546 FILLER_11_50
*547 FILLER_11_53
*548 FILLER_11_65
*549 FILLER_11_82
*550 FILLER_11_85
*551 FILLER_12_1
*552 FILLER_12_11
*553 FILLER_12_113
*554 FILLER_12_152
*555 FILLER_12_169
*556 FILLER_12_172
*557 FILLER_12_219
*558 FILLER_12_222
*559 FILLER_12_225
*560 FILLER_12_228
*561 FILLER_12_246
*562 FILLER_12_279
*563 FILLER_12_29
*564 FILLER_12_294
*565 FILLER_12_312
*566 FILLER_12_315
*567 FILLER_12_318
*568 FILLER_12_321
*569 FILLER_12_324
*570 FILLER_12_327
*571 FILLER_12_330
*572 FILLER_12_333
*573 FILLER_12_337
*574 FILLER_12_340
*575 FILLER_12_57
*576 FILLER_12_60
*577 FILLER_12_63
*578 FILLER_12_66
*579 FILLER_13_1
*580 FILLER_13_118
*581 FILLER_13_121
*582 FILLER_13_124
*583 FILLER_13_127
*584 FILLER_13_137
*585 FILLER_13_141
*586 FILLER_13_172
*587 FILLER_13_178
*588 FILLER_13_193
*589 FILLER_13_206
*590 FILLER_13_209
*591 FILLER_13_22
*592 FILLER_13_233
*593 FILLER_13_25
*594 FILLER_13_29
*595 FILLER_13_290
*596 FILLER_13_293
*597 FILLER_13_309
*598 FILLER_13_312
*599 FILLER_13_315
*600 FILLER_13_318
*601 FILLER_13_321
*602 FILLER_13_324
*603 FILLER_13_327
*604 FILLER_13_330
*605 FILLER_13_333
*606 FILLER_13_336
*607 FILLER_13_339
*608 FILLER_13_342
*609 FILLER_13_42
*610 FILLER_13_45
*611 FILLER_13_48
*612 FILLER_13_59
*613 FILLER_13_62
*614 FILLER_13_77
*615 FILLER_13_80
*616 FILLER_13_83
*617 FILLER_13_85
*618 FILLER_13_94
*619 FILLER_13_97
*620 FILLER_14_1
*621 FILLER_14_106
*622 FILLER_14_109
*623 FILLER_14_203
*624 FILLER_14_206
*625 FILLER_14_225
*626 FILLER_14_228
*627 FILLER_14_256
*628 FILLER_14_266
*629 FILLER_14_281
*630 FILLER_14_284
*631 FILLER_14_292
*632 FILLER_14_295
*633 FILLER_14_30
*634 FILLER_14_314
*635 FILLER_14_317
*636 FILLER_14_320
*637 FILLER_14_323
*638 FILLER_14_326
*639 FILLER_14_329
*640 FILLER_14_33
*641 FILLER_14_332
*642 FILLER_14_335
*643 FILLER_14_337
*644 FILLER_14_340
*645 FILLER_14_4
*646 FILLER_14_47
*647 FILLER_14_63
*648 FILLER_15_1
*649 FILLER_15_10
*650 FILLER_15_100
*651 FILLER_15_103
*652 FILLER_15_106
*653 FILLER_15_109
*654 FILLER_15_112
*655 FILLER_15_115
*656 FILLER_15_118
*657 FILLER_15_121
*658 FILLER_15_124
*659 FILLER_15_127
*660 FILLER_15_141
*661 FILLER_15_158
*662 FILLER_15_194
*663 FILLER_15_20
*664 FILLER_15_218
*665 FILLER_15_23
*666 FILLER_15_26
*667 FILLER_15_276
*668 FILLER_15_283
*669 FILLER_15_29
*670 FILLER_15_309
*671 FILLER_15_312
*672 FILLER_15_315
*673 FILLER_15_318
*674 FILLER_15_32
*675 FILLER_15_321
*676 FILLER_15_324
*677 FILLER_15_327
*678 FILLER_15_330
*679 FILLER_15_333
*680 FILLER_15_336
*681 FILLER_15_339
*682 FILLER_15_342
*683 FILLER_15_4
*684 FILLER_15_41
*685 FILLER_15_44
*686 FILLER_15_47
*687 FILLER_15_50
*688 FILLER_15_59
*689 FILLER_15_62
*690 FILLER_15_67
*691 FILLER_15_7
*692 FILLER_15_73
*693 FILLER_15_76
*694 FILLER_15_79
*695 FILLER_15_82
*696 FILLER_15_85
*697 FILLER_15_88
*698 FILLER_15_91
*699 FILLER_15_94
*700 FILLER_15_97
*701 FILLER_16_1
*702 FILLER_16_10
*703 FILLER_16_103
*704 FILLER_16_109
*705 FILLER_16_116
*706 FILLER_16_13
*707 FILLER_16_16
*708 FILLER_16_167
*709 FILLER_16_169
*710 FILLER_16_19
*711 FILLER_16_214
*712 FILLER_16_217
*713 FILLER_16_22
*714 FILLER_16_220
*715 FILLER_16_223
*716 FILLER_16_248
*717 FILLER_16_25
*718 FILLER_16_251
*719 FILLER_16_259
*720 FILLER_16_262
*721 FILLER_16_273
*722 FILLER_16_276
*723 FILLER_16_279
*724 FILLER_16_29
*725 FILLER_16_298
*726 FILLER_16_309
*727 FILLER_16_312
*728 FILLER_16_315
*729 FILLER_16_318
*730 FILLER_16_32
*731 FILLER_16_321
*732 FILLER_16_324
*733 FILLER_16_327
*734 FILLER_16_330
*735 FILLER_16_333
*736 FILLER_16_337
*737 FILLER_16_340
*738 FILLER_16_35
*739 FILLER_16_4
*740 FILLER_16_54
*741 FILLER_16_7
*742 FILLER_16_74
*743 FILLER_16_79
*744 FILLER_16_85
*745 FILLER_16_91
*746 FILLER_16_97
*747 FILLER_1_1
*748 FILLER_1_104
*749 FILLER_1_107
*750 FILLER_1_110
*751 FILLER_1_113
*752 FILLER_1_131
*753 FILLER_1_134
*754 FILLER_1_137
*755 FILLER_1_141
*756 FILLER_1_150
*757 FILLER_1_153
*758 FILLER_1_164
*759 FILLER_1_167
*760 FILLER_1_169
*761 FILLER_1_172
*762 FILLER_1_175
*763 FILLER_1_197
*764 FILLER_1_200
*765 FILLER_1_203
*766 FILLER_1_206
*767 FILLER_1_215
*768 FILLER_1_223
*769 FILLER_1_225
*770 FILLER_1_228
*771 FILLER_1_231
*772 FILLER_1_234
*773 FILLER_1_237
*774 FILLER_1_260
*775 FILLER_1_263
*776 FILLER_1_278
*777 FILLER_1_281
*778 FILLER_1_284
*779 FILLER_1_287
*780 FILLER_1_29
*781 FILLER_1_290
*782 FILLER_1_293
*783 FILLER_1_296
*784 FILLER_1_299
*785 FILLER_1_302
*786 FILLER_1_305
*787 FILLER_1_309
*788 FILLER_1_312
*789 FILLER_1_315
*790 FILLER_1_318
*791 FILLER_1_321
*792 FILLER_1_324
*793 FILLER_1_327
*794 FILLER_1_330
*795 FILLER_1_333
*796 FILLER_1_337
*797 FILLER_1_340
*798 FILLER_1_38
*799 FILLER_1_41
*800 FILLER_1_44
*801 FILLER_1_47
*802 FILLER_1_50
*803 FILLER_1_53
*804 FILLER_1_62
*805 FILLER_1_73
*806 FILLER_1_76
*807 FILLER_1_79
*808 FILLER_1_82
*809 FILLER_1_90
*810 FILLER_1_93
*811 FILLER_1_96
*812 FILLER_2_1
*813 FILLER_2_10
*814 FILLER_2_110
*815 FILLER_2_113
*816 FILLER_2_175
*817 FILLER_2_209
*818 FILLER_2_212
*819 FILLER_2_223
*820 FILLER_2_225
*821 FILLER_2_239
*822 FILLER_2_242
*823 FILLER_2_251
*824 FILLER_2_254
*825 FILLER_2_27
*826 FILLER_2_276
*827 FILLER_2_279
*828 FILLER_2_281
*829 FILLER_2_284
*830 FILLER_2_287
*831 FILLER_2_290
*832 FILLER_2_293
*833 FILLER_2_296
*834 FILLER_2_299
*835 FILLER_2_30
*836 FILLER_2_302
*837 FILLER_2_305
*838 FILLER_2_308
*839 FILLER_2_311
*840 FILLER_2_314
*841 FILLER_2_317
*842 FILLER_2_320
*843 FILLER_2_323
*844 FILLER_2_326
*845 FILLER_2_329
*846 FILLER_2_332
*847 FILLER_2_335
*848 FILLER_2_337
*849 FILLER_2_340
*850 FILLER_2_38
*851 FILLER_2_4
*852 FILLER_2_49
*853 FILLER_2_57
*854 FILLER_2_60
*855 FILLER_2_7
*856 FILLER_2_74
*857 FILLER_2_77
*858 FILLER_2_86
*859 FILLER_2_95
*860 FILLER_3_1
*861 FILLER_3_102
*862 FILLER_3_120
*863 FILLER_3_128
*864 FILLER_3_131
*865 FILLER_3_134
*866 FILLER_3_141
*867 FILLER_3_149
*868 FILLER_3_152
*869 FILLER_3_155
*870 FILLER_3_167
*871 FILLER_3_170
*872 FILLER_3_173
*873 FILLER_3_176
*874 FILLER_3_179
*875 FILLER_3_187
*876 FILLER_3_190
*877 FILLER_3_193
*878 FILLER_3_207
*879 FILLER_3_210
*880 FILLER_3_218
*881 FILLER_3_221
*882 FILLER_3_230
*883 FILLER_3_233
*884 FILLER_3_236
*885 FILLER_3_24
*886 FILLER_3_27
*887 FILLER_3_272
*888 FILLER_3_275
*889 FILLER_3_278
*890 FILLER_3_281
*891 FILLER_3_284
*892 FILLER_3_287
*893 FILLER_3_29
*894 FILLER_3_290
*895 FILLER_3_293
*896 FILLER_3_296
*897 FILLER_3_299
*898 FILLER_3_302
*899 FILLER_3_309
*900 FILLER_3_312
*901 FILLER_3_315
*902 FILLER_3_318
*903 FILLER_3_321
*904 FILLER_3_324
*905 FILLER_3_327
*906 FILLER_3_330
*907 FILLER_3_333
*908 FILLER_3_4
*909 FILLER_3_46
*910 FILLER_3_63
*911 FILLER_3_82
*912 FILLER_3_85
*913 FILLER_3_99
*914 FILLER_4_1
*915 FILLER_4_10
*916 FILLER_4_110
*917 FILLER_4_113
*918 FILLER_4_129
*919 FILLER_4_132
*920 FILLER_4_135
*921 FILLER_4_145
*922 FILLER_4_154
*923 FILLER_4_157
*924 FILLER_4_169
*925 FILLER_4_182
*926 FILLER_4_194
*927 FILLER_4_197
*928 FILLER_4_216
*929 FILLER_4_281
*930 FILLER_4_284
*931 FILLER_4_29
*932 FILLER_4_291
*933 FILLER_4_294
*934 FILLER_4_316
*935 FILLER_4_319
*936 FILLER_4_32
*937 FILLER_4_326
*938 FILLER_4_337
*939 FILLER_4_340
*940 FILLER_4_65
*941 FILLER_4_68
*942 FILLER_4_90
*943 FILLER_4_93
*944 FILLER_4_96
*945 FILLER_4_99
*946 FILLER_5_1
*947 FILLER_5_101
*948 FILLER_5_104
*949 FILLER_5_11
*950 FILLER_5_113
*951 FILLER_5_116
*952 FILLER_5_119
*953 FILLER_5_122
*954 FILLER_5_132
*955 FILLER_5_135
*956 FILLER_5_138
*957 FILLER_5_14
*958 FILLER_5_141
*959 FILLER_5_156
*960 FILLER_5_159
*961 FILLER_5_17
*962 FILLER_5_177
*963 FILLER_5_180
*964 FILLER_5_192
*965 FILLER_5_195
*966 FILLER_5_197
*967 FILLER_5_20
*968 FILLER_5_200
*969 FILLER_5_203
*970 FILLER_5_210
*971 FILLER_5_213
*972 FILLER_5_216
*973 FILLER_5_219
*974 FILLER_5_23
*975 FILLER_5_233
*976 FILLER_5_236
*977 FILLER_5_239
*978 FILLER_5_242
*979 FILLER_5_253
*980 FILLER_5_26
*981 FILLER_5_265
*982 FILLER_5_287
*983 FILLER_5_29
*984 FILLER_5_290
*985 FILLER_5_306
*986 FILLER_5_322
*987 FILLER_5_333
*988 FILLER_5_337
*989 FILLER_5_340
*990 FILLER_5_4
*991 FILLER_5_45
*992 FILLER_5_48
*993 FILLER_5_72
*994 FILLER_5_75
*995 FILLER_5_90
*996 FILLER_5_98
*997 FILLER_6_101
*998 FILLER_6_111
*999 FILLER_6_113
*1000 FILLER_6_116
*1001 FILLER_6_130
*1002 FILLER_6_133
*1003 FILLER_6_136
*1004 FILLER_6_139
*1005 FILLER_6_169
*1006 FILLER_6_172
*1007 FILLER_6_189
*1008 FILLER_6_197
*1009 FILLER_6_200
*1010 FILLER_6_218
*1011 FILLER_6_246
*1012 FILLER_6_249
*1013 FILLER_6_262
*1014 FILLER_6_265
*1015 FILLER_6_275
*1016 FILLER_6_278
*1017 FILLER_6_281
*1018 FILLER_6_295
*1019 FILLER_6_314
*1020 FILLER_6_332
*1021 FILLER_6_335
*1022 FILLER_6_337
*1023 FILLER_6_340
*1024 FILLER_6_51
*1025 FILLER_6_54
*1026 FILLER_6_64
*1027 FILLER_6_75
*1028 FILLER_6_78
*1029 FILLER_6_92
*1030 FILLER_7_1
*1031 FILLER_7_110
*1032 FILLER_7_118
*1033 FILLER_7_121
*1034 FILLER_7_15
*1035 FILLER_7_171
*1036 FILLER_7_174
*1037 FILLER_7_177
*1038 FILLER_7_18
*1039 FILLER_7_180
*1040 FILLER_7_183
*1041 FILLER_7_197
*1042 FILLER_7_21
*1043 FILLER_7_221
*1044 FILLER_7_231
*1045 FILLER_7_234
*1046 FILLER_7_237
*1047 FILLER_7_24
*1048 FILLER_7_246
*1049 FILLER_7_249
*1050 FILLER_7_27
*1051 FILLER_7_273
*1052 FILLER_7_29
*1053 FILLER_7_293
*1054 FILLER_7_296
*1055 FILLER_7_299
*1056 FILLER_7_32
*1057 FILLER_7_333
*1058 FILLER_7_51
*1059 FILLER_7_54
*1060 FILLER_7_85
*1061 FILLER_7_88
*1062 FILLER_8_1
*1063 FILLER_8_104
*1064 FILLER_8_113
*1065 FILLER_8_116
*1066 FILLER_8_119
*1067 FILLER_8_127
*1068 FILLER_8_13
*1069 FILLER_8_130
*1070 FILLER_8_133
*1071 FILLER_8_136
*1072 FILLER_8_164
*1073 FILLER_8_167
*1074 FILLER_8_169
*1075 FILLER_8_172
*1076 FILLER_8_175
*1077 FILLER_8_187
*1078 FILLER_8_240
*1079 FILLER_8_250
*1080 FILLER_8_267
*1081 FILLER_8_270
*1082 FILLER_8_279
*1083 FILLER_8_288
*1084 FILLER_8_297
*1085 FILLER_8_309
*1086 FILLER_8_31
*1087 FILLER_8_312
*1088 FILLER_8_315
*1089 FILLER_8_318
*1090 FILLER_8_327
*1091 FILLER_8_337
*1092 FILLER_8_340
*1093 FILLER_8_4
*1094 FILLER_8_47
*1095 FILLER_8_50
*1096 FILLER_8_53
*1097 FILLER_8_57
*1098 FILLER_8_66
*1099 FILLER_8_69
*1100 FILLER_8_72
*1101 FILLER_8_75
*1102 FILLER_8_78
*1103 FILLER_9_1
*1104 FILLER_9_112
*1105 FILLER_9_15
*1106 FILLER_9_153
*1107 FILLER_9_18
*1108 FILLER_9_182
*1109 FILLER_9_197
*1110 FILLER_9_200
*1111 FILLER_9_224
*1112 FILLER_9_227
*1113 FILLER_9_249
*1114 FILLER_9_253
*1115 FILLER_9_256
*1116 FILLER_9_265
*1117 FILLER_9_280
*1118 FILLER_9_283
*1119 FILLER_9_286
*1120 FILLER_9_289
*1121 FILLER_9_29
*1122 FILLER_9_300
*1123 FILLER_9_309
*1124 FILLER_9_312
*1125 FILLER_9_315
*1126 FILLER_9_318
*1127 FILLER_9_32
*1128 FILLER_9_321
*1129 FILLER_9_324
*1130 FILLER_9_327
*1131 FILLER_9_330
*1132 FILLER_9_333
*1133 FILLER_9_48
*1134 FILLER_9_73
*1135 FILLER_9_82
*1136 FILLER_9_91
*1137 FILLER_9_94
*1138 FILLER_9_97
*1139 PHY_EDGE_ROW_23_1_Left_17
*1140 PHY_EDGE_ROW_23_1_Right_0
*1141 PHY_EDGE_ROW_24_Left_18
*1142 PHY_EDGE_ROW_24_Right_1
*1143 PHY_EDGE_ROW_25_Left_19
*1144 PHY_EDGE_ROW_25_Right_2
*1145 PHY_EDGE_ROW_26_Left_20
*1146 PHY_EDGE_ROW_26_Right_3
*1147 PHY_EDGE_ROW_27_Left_21
*1148 PHY_EDGE_ROW_27_Right_4
*1149 PHY_EDGE_ROW_28_Left_22
*1150 PHY_EDGE_ROW_28_Right_5
*1151 PHY_EDGE_ROW_29_Left_23
*1152 PHY_EDGE_ROW_29_Right_6
*1153 PHY_EDGE_ROW_30_Left_24
*1154 PHY_EDGE_ROW_30_Right_7
*1155 PHY_EDGE_ROW_31_Left_25
*1156 PHY_EDGE_ROW_31_Right_8
*1157 PHY_EDGE_ROW_32_Left_26
*1158 PHY_EDGE_ROW_32_Right_9
*1159 PHY_EDGE_ROW_33_Left_27
*1160 PHY_EDGE_ROW_33_Right_10
*1161 PHY_EDGE_ROW_34_Left_28
*1162 PHY_EDGE_ROW_34_Right_11
*1163 PHY_EDGE_ROW_35_Left_29
*1164 PHY_EDGE_ROW_35_Right_12
*1165 PHY_EDGE_ROW_36_Left_30
*1166 PHY_EDGE_ROW_36_Right_13
*1167 PHY_EDGE_ROW_37_Left_31
*1168 PHY_EDGE_ROW_37_Right_14
*1169 PHY_EDGE_ROW_38_Left_32
*1170 PHY_EDGE_ROW_38_Right_15
*1171 PHY_EDGE_ROW_39_Left_33
*1172 PHY_EDGE_ROW_39_Right_16
*1173 TAP_TAPCELL_ROW_24_34
*1174 TAP_TAPCELL_ROW_24_35
*1175 TAP_TAPCELL_ROW_24_36
*1176 TAP_TAPCELL_ROW_24_37
*1177 TAP_TAPCELL_ROW_24_38
*1178 TAP_TAPCELL_ROW_24_39
*1179 TAP_TAPCELL_ROW_24_40
*1180 TAP_TAPCELL_ROW_24_41
*1181 TAP_TAPCELL_ROW_24_42
*1182 TAP_TAPCELL_ROW_24_43
*1183 TAP_TAPCELL_ROW_24_44
*1184 TAP_TAPCELL_ROW_24_45
*1185 TAP_TAPCELL_ROW_25_46
*1186 TAP_TAPCELL_ROW_25_47
*1187 TAP_TAPCELL_ROW_25_48
*1188 TAP_TAPCELL_ROW_25_49
*1189 TAP_TAPCELL_ROW_25_50
*1190 TAP_TAPCELL_ROW_25_51
*1191 TAP_TAPCELL_ROW_26_52
*1192 TAP_TAPCELL_ROW_26_53
*1193 TAP_TAPCELL_ROW_26_54
*1194 TAP_TAPCELL_ROW_26_55
*1195 TAP_TAPCELL_ROW_26_56
*1196 TAP_TAPCELL_ROW_26_57
*1197 TAP_TAPCELL_ROW_27_58
*1198 TAP_TAPCELL_ROW_27_59
*1199 TAP_TAPCELL_ROW_27_60
*1200 TAP_TAPCELL_ROW_27_61
*1201 TAP_TAPCELL_ROW_27_62
*1202 TAP_TAPCELL_ROW_27_63
*1203 TAP_TAPCELL_ROW_28_64
*1204 TAP_TAPCELL_ROW_28_65
*1205 TAP_TAPCELL_ROW_28_66
*1206 TAP_TAPCELL_ROW_28_67
*1207 TAP_TAPCELL_ROW_28_68
*1208 TAP_TAPCELL_ROW_28_69
*1209 TAP_TAPCELL_ROW_29_70
*1210 TAP_TAPCELL_ROW_29_71
*1211 TAP_TAPCELL_ROW_29_72
*1212 TAP_TAPCELL_ROW_29_73
*1213 TAP_TAPCELL_ROW_29_74
*1214 TAP_TAPCELL_ROW_29_75
*1215 TAP_TAPCELL_ROW_30_76
*1216 TAP_TAPCELL_ROW_30_77
*1217 TAP_TAPCELL_ROW_30_78
*1218 TAP_TAPCELL_ROW_30_79
*1219 TAP_TAPCELL_ROW_30_80
*1220 TAP_TAPCELL_ROW_30_81
*1221 TAP_TAPCELL_ROW_31_82
*1222 TAP_TAPCELL_ROW_31_83
*1223 TAP_TAPCELL_ROW_31_84
*1224 TAP_TAPCELL_ROW_31_85
*1225 TAP_TAPCELL_ROW_31_86
*1226 TAP_TAPCELL_ROW_31_87
*1227 TAP_TAPCELL_ROW_32_88
*1228 TAP_TAPCELL_ROW_32_89
*1229 TAP_TAPCELL_ROW_32_90
*1230 TAP_TAPCELL_ROW_32_91
*1231 TAP_TAPCELL_ROW_32_92
*1232 TAP_TAPCELL_ROW_32_93
*1233 TAP_TAPCELL_ROW_33_94
*1234 TAP_TAPCELL_ROW_33_95
*1235 TAP_TAPCELL_ROW_33_96
*1236 TAP_TAPCELL_ROW_33_97
*1237 TAP_TAPCELL_ROW_33_98
*1238 TAP_TAPCELL_ROW_33_99
*1239 TAP_TAPCELL_ROW_34_100
*1240 TAP_TAPCELL_ROW_34_101
*1241 TAP_TAPCELL_ROW_34_102
*1242 TAP_TAPCELL_ROW_34_103
*1243 TAP_TAPCELL_ROW_34_104
*1244 TAP_TAPCELL_ROW_34_105
*1245 TAP_TAPCELL_ROW_35_106
*1246 TAP_TAPCELL_ROW_35_107
*1247 TAP_TAPCELL_ROW_35_108
*1248 TAP_TAPCELL_ROW_35_109
*1249 TAP_TAPCELL_ROW_35_110
*1250 TAP_TAPCELL_ROW_35_111
*1251 TAP_TAPCELL_ROW_36_112
*1252 TAP_TAPCELL_ROW_36_113
*1253 TAP_TAPCELL_ROW_36_114
*1254 TAP_TAPCELL_ROW_36_115
*1255 TAP_TAPCELL_ROW_36_116
*1256 TAP_TAPCELL_ROW_36_117
*1257 TAP_TAPCELL_ROW_37_118
*1258 TAP_TAPCELL_ROW_37_119
*1259 TAP_TAPCELL_ROW_37_120
*1260 TAP_TAPCELL_ROW_37_121
*1261 TAP_TAPCELL_ROW_37_122
*1262 TAP_TAPCELL_ROW_37_123
*1263 TAP_TAPCELL_ROW_38_124
*1264 TAP_TAPCELL_ROW_38_125
*1265 TAP_TAPCELL_ROW_38_126
*1266 TAP_TAPCELL_ROW_38_127
*1267 TAP_TAPCELL_ROW_38_128
*1268 TAP_TAPCELL_ROW_38_129
*1269 TAP_TAPCELL_ROW_39_130
*1270 TAP_TAPCELL_ROW_39_131
*1271 TAP_TAPCELL_ROW_39_132
*1272 TAP_TAPCELL_ROW_39_133
*1273 TAP_TAPCELL_ROW_39_134
*1274 TAP_TAPCELL_ROW_39_135
*1275 TAP_TAPCELL_ROW_39_136
*1276 TAP_TAPCELL_ROW_39_137
*1277 TAP_TAPCELL_ROW_39_138
*1278 TAP_TAPCELL_ROW_39_139
*1279 TAP_TAPCELL_ROW_39_140
*1280 TAP_TAPCELL_ROW_39_141
*1281 _293_
*1282 _294_
*1283 _295_
*1284 _296_
*1285 _297_
*1286 _298_
*1287 _299_
*1288 _300_
*1289 _301_
*1290 _302_
*1291 _303_
*1292 _304_
*1293 _305_
*1294 _306_
*1295 _307_
*1296 _308_
*1297 _309_
*1298 _310_
*1299 _311_
*1300 _312_
*1301 _313_
*1302 _314_
*1303 _315_
*1304 _316_
*1305 _317_
*1306 _318_
*1307 _319_
*1308 _320_
*1309 _321_
*1310 _322_
*1311 _323_
*1312 _324_
*1313 _325_
*1314 _326_
*1315 _327_
*1316 _328_
*1317 _329_
*1318 _330_
*1319 _331_
*1320 _332_
*1321 _333_
*1322 _334_
*1323 _335_
*1324 _336_
*1325 _337_
*1326 _338_
*1327 _339_
*1328 _340_
*1329 _341_
*1330 _342_
*1331 _343_
*1332 _344_
*1333 _345_
*1334 _346_
*1335 _347_
*1336 _348_
*1337 _349_
*1338 _350_
*1339 _351_
*1340 _352_
*1341 _353_
*1342 _354_
*1343 _355_
*1344 _356_
*1345 _357_
*1346 _358_
*1347 _359_
*1348 _360_
*1349 _361_
*1350 _362_
*1351 _363_
*1352 _364_
*1353 _365_
*1354 _366_
*1355 _367_
*1356 _368_
*1357 _369_
*1358 _370_
*1359 _371_
*1360 _372_
*1361 _373_
*1362 _374_
*1363 _375_
*1364 _376_
*1365 _377_
*1366 _378_
*1367 _379_
*1368 _380_
*1369 _381_
*1370 _382_
*1371 _383_
*1372 _384_
*1373 _385_
*1374 _386_
*1375 _387_
*1376 _388_
*1377 _389_
*1378 _390_
*1379 _391_
*1380 _392_
*1381 _393_
*1382 _394_
*1383 _395_
*1384 _396_
*1385 _397_
*1386 _398_
*1387 _399_
*1388 _400_
*1389 _401_
*1390 _402_
*1391 _403_
*1392 _404_
*1393 _405_
*1394 _406_
*1395 _407_
*1396 _408_
*1397 _409_
*1398 _410_
*1399 _411_
*1400 _412_
*1401 _413_
*1402 _414_
*1403 _415_
*1404 _416_
*1405 _417_
*1406 _418_
*1407 _419_
*1408 _420_
*1409 _421_
*1410 _422_
*1411 _423_
*1412 _424_
*1413 _425_
*1414 _426_
*1415 _427_
*1416 _428_
*1417 _429_
*1418 _430_
*1419 _431_
*1420 _432_
*1421 _433_
*1422 _434_
*1423 _435_
*1424 _436_
*1425 _437_
*1426 _438_
*1427 _439_
*1428 _440_
*1429 _441_
*1430 _442_
*1431 _443_
*1432 _444_
*1433 _445_
*1434 _446_
*1435 _447_
*1436 _448_
*1437 _449_
*1438 _450_
*1439 _451_
*1440 _452_
*1441 _453_
*1442 _454_
*1443 _455_
*1444 _456_
*1445 _457_
*1446 _458_
*1447 _459_
*1448 _460_
*1449 _461_
*1450 _462_
*1451 _463_
*1452 _464_
*1453 _465_
*1454 _466_
*1455 _467_
*1456 _468_
*1457 _469_
*1458 _470_
*1459 _471_
*1460 _472_
*1461 _473_
*1462 _474_
*1463 _475_
*1464 _476_
*1465 _477_
*1466 _478_
*1467 _479_
*1468 _480_
*1469 _481_
*1470 _482_
*1471 _483_
*1472 _484_
*1473 _485_
*1474 _486_
*1475 _487_
*1476 _488_
*1477 _489_
*1478 _490_
*1479 _491_
*1480 _492_
*1481 _493_
*1482 _494_
*1483 _495_
*1484 _496_
*1485 _497_
*1486 _498_
*1487 _499_
*1488 _500_
*1489 _501_
*1490 _502_
*1491 _503_
*1492 _504_
*1493 _505_
*1494 _506_
*1495 _507_
*1496 _508_
*1497 _509_
*1498 _510_
*1499 _511_
*1500 _512_
*1501 _513_
*1502 _514_
*1503 _515_
*1504 _516_
*1505 _517_
*1506 _518_
*1507 _519_
*1508 _520_
*1509 _521_
*1510 _522_
*1511 _523_
*1512 _524_
*1513 _525_
*1514 _526_
*1515 _527_
*1516 _528_
*1517 _529_
*1518 _530_
*1519 _531_
*1520 _532_
*1521 _533_
*1522 _534_
*1523 _535_
*1524 _536_
*1525 _537_
*1526 _538_
*1527 _539_
*1528 _540_
*1529 _541_
*1530 _542_
*1531 _543_
*1532 _544_
*1533 _545_
*1534 _546_
*1535 _547_
*1536 _548_
*1537 _549_
*1538 _550_
*1539 _551_
*1540 _552_
*1541 _553_
*1542 _554_
*1543 _555_
*1544 _556_
*1545 _557_
*1546 _558_
*1547 _559_
*1548 _560_
*1549 _561_
*1550 _562_
*1551 _563_
*1552 _564_
*1553 _565_
*1554 _566_
*1555 _567_
*1556 _568_
*1557 _569_
*1558 _570_
*1559 _571_
*1560 _572_
*1561 _573_
*1562 _574_
*1563 _575_
*1564 _576_
*1565 _577_
*1566 _578_
*1567 _579_
*1568 _580_
*1569 _581_
*1570 _582_
*1571 _583_
*1572 _584_
*1573 _585_
*1574 _586_
*1575 _587_
*1576 _588_
*1577 _589_
*1578 _590_
*1579 _591_
*1580 _592_
*1581 _593_
*1582 _594_
*1583 _595_
*1584 _596_
*1585 _597_
*1586 _598_
*1587 _599_
*1588 _600_
*1589 _601_
*1590 _602_
*1591 _603_
*1592 _604_
*1593 _605_
*1594 _606_
*1595 _607_
*1596 _608_
*1597 _609_
*1598 _610_
*1599 _611_
*1600 _612_
*1601 _613_
*1602 _614_
*1603 _615_
*1604 _616_
*1605 _617_
*1606 _618_
*1607 _619_
*1608 _620_
*1609 _621_
*1610 _622_
*1611 _623_
*1612 _624_
*1613 _625_
*1614 _626_
*1615 _627_
*1616 _628_
*1617 _629_
*1618 _630_
*1619 _631_
*1620 _632_
*1621 _633_
*1622 _634_
*1623 _635_
*1624 _636_
*1625 _637_
*1626 _638_
*1627 _639_
*1628 _640_
*1629 _641_
*1630 _642_
*1631 _643_
*1632 _644_
*1633 _645_
*1634 _646_
*1635 _647_
*1636 _648_
*1637 _649_
*1638 _667_
*1639 _668_
*1640 clkbuf_0_clk
*1641 clkbuf_0_clk_regs
*1642 clkbuf_1_0__f_clk
*1643 clkbuf_2_0__f_clk_regs
*1644 clkbuf_2_1__f_clk_regs
*1645 clkbuf_2_2__f_clk_regs
*1646 clkbuf_2_3__f_clk_regs
*1647 clkbuf_regs_0_clk
*1648 clkload0
*1649 clkload1
*1650 fanout10
*1651 fanout11
*1652 fanout12
*1653 fanout13
*1654 fanout14
*1655 fanout15
*1656 fanout16
*1657 fanout17
*1658 fanout18
*1659 fanout19
*1660 fanout2
*1661 fanout20
*1662 fanout21
*1663 fanout22
*1664 fanout23
*1665 fanout24
*1666 fanout25
*1667 fanout3
*1668 fanout5
*1669 fanout6
*1670 fanout7
*1671 fanout8
*1672 fanout9
*1673 hold42
*1674 hold43
*1675 input1
*1676 sprite
*1677 timing\.counter
*1678 timing\.counter_41
*1679 timing\.i_and
*1680 timing\.i_nand
*1681 tt_um_rebelmike_asic_odyssey
*1682 tt_um_rebelmike_asic_odyssey_26
*1683 tt_um_rebelmike_asic_odyssey_27
*1684 tt_um_rebelmike_asic_odyssey_28
*1685 tt_um_rebelmike_asic_odyssey_29
*1686 tt_um_rebelmike_asic_odyssey_30
*1687 tt_um_rebelmike_asic_odyssey_31
*1688 tt_um_rebelmike_asic_odyssey_32
*1689 tt_um_rebelmike_asic_odyssey_33
*1690 tt_um_rebelmike_asic_odyssey_34
*1691 tt_um_rebelmike_asic_odyssey_35
*1692 tt_um_rebelmike_asic_odyssey_36
*1693 tt_um_rebelmike_asic_odyssey_37
*1694 tt_um_rebelmike_asic_odyssey_38
*1695 tt_um_rebelmike_asic_odyssey_39
*1696 tt_um_rebelmike_asic_odyssey_40
*1697 wire4

*PORTS
clk I
ena I
rst_n I
ui_in[0] I
ui_in[1] I
ui_in[2] I
ui_in[3] I
ui_in[4] I
ui_in[5] I
ui_in[6] I
ui_in[7] I
uio_in[0] I
uio_in[1] I
uio_in[2] I
uio_in[3] I
uio_in[4] I
uio_in[5] I
uio_in[6] I
uio_in[7] I
uio_oe[0] O
uio_oe[1] O
uio_oe[2] O
uio_oe[3] O
uio_oe[4] O
uio_oe[5] O
uio_oe[6] O
uio_oe[7] O
uio_out[0] O
uio_out[1] O
uio_out[2] O
uio_out[3] O
uio_out[4] O
uio_out[5] O
uio_out[6] O
uio_out[7] O
uo_out[0] O
uo_out[1] O
uo_out[2] O
uo_out[3] O
uo_out[4] O
uo_out[5] O
uo_out[6] O
uo_out[7] O

*D_NET *3 0.0279242
*CONN
*P clk I
*I *1640:A I *D sky130_fd_sc_hd__clkbuf_16
*I *1647:A I *D sky130_fd_sc_hd__clkbuf_16
*CAP
1 clk 0.00464238
2 *1640:A 3.87934e-05
3 *1647:A 0
4 *3:74 0.00141986
5 *3:72 0.00650787
6 *3:40 0.000138464
7 *3:38 0.00537595
8 *3:34 0.00475305
9 *1640:A *1677:rst_n 5.45307e-05
10 *3:34 uo_out[3] 0
11 *3:34 uo_out[4] 4.46292e-05
12 *3:34 *1558:A0 0.000378994
13 *3:34 *1558:A1 2.08162e-05
14 *3:34 *1558:S 2.95553e-05
15 *3:34 *1559:B 3.85332e-05
16 *3:34 *1560:A1 8.83411e-05
17 *3:34 *1561:B 3.24169e-06
18 *3:34 *1563:A 0
19 *3:34 *1610:CLK 0
20 *3:34 *1615:D 3.80749e-05
21 *3:34 *1616:D 0
22 *3:34 *1618:CLK 0
23 *3:34 *1655:A 3.31571e-05
24 *3:34 *1675:A 5.87118e-05
25 *3:34 *1676:addr[5] 0.00122598
26 *3:34 *363:23 0.000101601
27 *3:34 *363:58 0
28 *3:34 *368:40 0
29 *3:34 *382:26 0.000163255
30 *3:34 *383:12 3.13496e-05
31 *3:34 *407:25 0
32 *3:34 *408:75 3.30973e-05
33 *3:34 *408:96 4.03336e-05
34 *3:38 *1610:CLK 1.03918e-05
35 *3:38 *456:34 0
36 *3:40 *1549:B 4.05613e-05
37 *3:40 *1610:CLK 6.56793e-06
38 *3:40 *1610:D 8.20389e-06
39 *3:40 *382:38 8.07397e-05
40 *3:40 *456:34 0
41 *3:72 uio_out[0] 0
42 *3:72 uo_out[4] 0